/*--------------------------------*- C++ -*----------------------------------*\
  =========                 |
  \\      /  F ield         | OpenFOAM: The Open Source CFD Toolbox
   \\    /   O peration     | Website:  https://openfoam.org
    \\  /    A nd           | Version:  8
     \\/     M anipulation  |
\*---------------------------------------------------------------------------*/
FoamFile
{
    version     2.0;
    format      ascii;
    class       volScalarField;
    location    "0";
    object      k;
}
// * * * * * * * * * * * * * * * * * * * * * * * * * * * * * * * * * * * * * //

dimensions      [0 2 -2 0 0 0 0];

internalField   uniform 1e-05;

boundaryField
{
    walls
    {
        type            kqRWallFunction;
        value           uniform 1e-05;
    }
    region0_to_wallFilmRegion_wallFilmFace
    {
        type            kqRWallFunction;
        value           uniform 1e-05;
    }
    region0_to_wallFilmRegion_mirrorFace
    {
        type            kqRWallFunction;
        value           uniform 1e-05;
    }
    procBoundary0to1
    {
        type            processor;
        value           uniform 1e-05;
    }
    procBoundary0to2
    {
        type            processor;
        value           uniform 1e-05;
    }
    procBoundary0to3
    {
        type            processor;
        value           uniform 1e-05;
    }
}


// ************************************************************************* //
