/*--------------------------------*- C++ -*----------------------------------*\
  =========                 |
  \\      /  F ield         | OpenFOAM: The Open Source CFD Toolbox
   \\    /   O peration     | Website:  https://openfoam.org
    \\  /    A nd           | Version:  8
     \\/     M anipulation  |
\*---------------------------------------------------------------------------*/
FoamFile
{
    version     2.0;
    format      ascii;
    class       dictionary;
    location    "system";
    object      fvSolution;
}
// * * * * * * * * * * * * * * * * * * * * * * * * * * * * * * * * * * * * * //
//矩阵求解器
solvers
{
    "(rho|G)"
    {
        solver          PCG;
        preconditioner  DIC;
        tolerance       0;    //容差
        relTol          0.1;
    }

    "(rho|G)Final"
    {
        $rho;
        tolerance       1e-05;
        relTol          0;
    }

    "(U|h|k|epsilon)"
    {
        solver          PBiCGStab;
        preconditioner  DILU;
        tolerance       1e-5;
        relTol          0.1;
    }

    "(U|h|k|epsilon)Final"
    {
        $U;
        relTol          0;
        tolerance       1e-05;
    }

    p_rgh
    {
        solver           GAMG;
        tolerance        0;
        relTol           0.1;
        smoother         DICGaussSeidel;
        maxIter          100;
    }

    p_rghFinal
    {
        $p_rgh;
        tolerance       1e-06;
        relTol          0;
    }

    "(Yi|O2|N2|H2O).*"
    {
        $hFinal;
    }
}

PIMPLE
{
    nCorrectors     2;               //外循环数
    nNonOrthogonalCorrectors 0;       //非正交修正
    momentumPredictor yes;            //动量预测
}

relaxationFactors
{
    equations
    {
        ".*"        1;
    }
}


// ************************************************************************* //
