/*--------------------------------*- C++ -*----------------------------------*\
  =========                 |
  \\      /  F ield         | OpenFOAM: The Open Source CFD Toolbox
   \\    /   O peration     | Website:  https://openfoam.org
    \\  /    A nd           | Version:  8
     \\/     M anipulation  |
\*---------------------------------------------------------------------------*/
FoamFile
{
    version     2.0;
    format      ascii;
    class       dictionary;
    object      topoSetDict;
}

// * * * * * * * * * * * * * * * * * * * * * * * * * * * * * * * * * * * * * //

actions
(
    {
        name    wallFilmFaceSet;
        type    faceSet;
        action  new;
        source  patchToFace;
        sourceInfo
        {
            name wallFilm;
        }
    }
    {
    
        name    mirrorFaceSet;
        type    faceSet;
        action  new;
        source  patchToFace;
        sourceInfo
        {
            name mirror;
        }
    }
    {
        name    wallFilmFace;
        type    faceZoneSet;
        action  new;
        source  setToFaceZone;
        sourceInfo
        {
            faceSet wallFilmFaceSet;
        }
    }
    {
        name    mirrorFace;
        type    faceZoneSet;
        action  new;
        source  setToFaceZone;
        sourceInfo
        {
            faceSet mirrorFaceSet;
        }
    }
);

// ************************************************************************* //
