/*--------------------------------*- C++ -*----------------------------------*\
  =========                 |
  \\      /  F ield         | OpenFOAM: The Open Source CFD Toolbox
   \\    /   O peration     | Website:  https://openfoam.org
    \\  /    A nd           | Version:  8
     \\/     M anipulation  |
\*---------------------------------------------------------------------------*/
FoamFile
{
    version     2.0;
    format      ascii;
    class       polyBoundaryMesh;
    location    "constant/wallFilmRegion/polyMesh";
    object      boundary;
}
// * * * * * * * * * * * * * * * * * * * * * * * * * * * * * * * * * * * * * //

7
(
    walls
    {
        type            wall;
        inGroups        List<word> 1(wall);
        nFaces          79;
        startFace       2656;
    }
    wallFilmFace_top
    {
        type            patch;
        nFaces          1369;
        startFace       2735;
    }
    region0_to_wallFilmRegion_wallFilmFace
    {
        type            mappedWall;
        inGroups        List<word> 
2
(
wall
mappedPatch
)
;
        nFaces          1369;
        startFace       4104;
        sampleMode      nearestPatchFace;
        sampleRegion    region0;
        samplePatch     region0_to_wallFilmRegion_wallFilmFace;
        offsetMode      nonuniform;
        offsets         nonuniform List<vector> 
1369
(
(0 0 0)
(-5.551115123e-17 0 0)
(-5.551115123e-17 0 0)
(5.551115123e-17 2.775557562e-17 0)
(-5.551115123e-17 0 0)
(-5.551115123e-17 0 0)
(-5.551115123e-17 0 0)
(-5.551115123e-17 -2.775557562e-17 0)
(-1.110223025e-16 0 0)
(-1.110223025e-16 5.551115123e-17 0)
(-5.551115123e-17 2.775557562e-17 0)
(-1.110223025e-16 0 0)
(-1.110223025e-16 1.110223025e-16 0)
(-1.110223025e-16 5.551115123e-17 0)
(-1.110223025e-16 0 0)
(0 0 0)
(-1.110223025e-16 5.551115123e-17 0)
(-1.110223025e-16 0 0)
(0 0 0)
(-5.551115123e-17 0 0)
(-5.551115123e-17 -2.775557562e-17 0)
(-1.110223025e-16 8.326672685e-17 0)
(-5.551115123e-17 -2.775557562e-17 0)
(-5.551115123e-17 0 0)
(-5.551115123e-17 0 0)
(-5.551115123e-17 0 0)
(5.551115123e-17 5.551115123e-17 0)
(-5.551115123e-17 -5.551115123e-17 0)
(-5.551115123e-17 -5.551115123e-17 0)
(-5.551115123e-17 -1.665334537e-16 0)
(-5.551115123e-17 -1.110223025e-16 0)
(5.551115123e-17 2.775557562e-17 0)
(0 0 0)
(0 0 0)
(5.551115123e-17 2.775557562e-17 0)
(0 0 0)
(0 0 0)
(0 0 0)
(0 0 0)
(5.551115123e-17 -5.551115123e-17 0)
(0 0 0)
(0 0 0)
(0 0 0)
(0 0 0)
(0 0 0)
(5.551115123e-17 0 0)
(0 0 0)
(0 0 0)
(5.551115123e-17 2.775557562e-17 0)
(0 0 0)
(0 5.551115123e-17 0)
(0 2.775557562e-17 0)
(0 -2.775557562e-17 0)
(0 1.110223025e-16 0)
(0 5.551115123e-17 0)
(0 0 0)
(5.551115123e-17 0 0)
(0 5.551115123e-17 0)
(0 0 0)
(0 0 0)
(0 5.551115123e-17 0)
(0 -5.551115123e-17 0)
(0 -5.551115123e-17 0)
(0 0 0)
(0 0 0)
(0 0 0)
(0 0 0)
(0 -2.775557562e-17 0)
(0 0 0)
(0 -2.775557562e-17 0)
(0 0 0)
(0 -8.326672685e-17 0)
(0 0 0)
(0 0 0)
(0 5.551115123e-17 0)
(0 -5.551115123e-17 0)
(0 0 0)
(0 5.551115123e-17 0)
(0 0 0)
(0 0 0)
(0 0 0)
(0 -5.551115123e-17 0)
(0 -5.551115123e-17 0)
(0 0 0)
(0 0 0)
(0 5.551115123e-17 0)
(0 0 0)
(0 -5.551115123e-17 0)
(0 0 0)
(0 0 0)
(-5.551115123e-17 2.775557562e-17 0)
(0 0 0)
(0 0 0)
(-1.110223025e-16 0 0)
(0 0 0)
(0 0 0)
(0 -5.551115123e-17 0)
(0 -5.551115123e-17 0)
(0 0 0)
(0 0 0)
(0 -5.551115123e-17 0)
(0 0 0)
(0 0 0)
(0 0 0)
(0 0 0)
(0 0 0)
(0 0 0)
(0 5.551115123e-17 0)
(0 0 0)
(0 0 0)
(0 0 0)
(0 0 0)
(0 0 0)
(0 -5.551115123e-17 0)
(-5.551115123e-17 -1.665334537e-16 0)
(0 -5.551115123e-17 0)
(0 0 0)
(0 8.326672685e-17 0)
(0 0 0)
(0 0 0)
(0 5.551115123e-17 0)
(0 0 0)
(0 0 0)
(0 0 0)
(0 0 0)
(0 5.551115123e-17 0)
(0 0 0)
(0 5.551115123e-17 0)
(0 0 0)
(0 0 0)
(0 0 0)
(0 -5.551115123e-17 0)
(0 0 0)
(0 5.551115123e-17 0)
(0 5.551115123e-17 0)
(0 -5.551115123e-17 0)
(0 0 0)
(0 -5.551115123e-17 0)
(-5.551115123e-17 -5.551115123e-17 0)
(0 0 0)
(0 0 0)
(0 0 0)
(0 0 0)
(0 0 0)
(0 2.775557562e-17 0)
(0 0 0)
(0 0 0)
(0 0 0)
(0 0 0)
(0 0 0)
(0 0 0)
(0 0 0)
(0 0 0)
(0 0 0)
(0 0 0)
(0 0 0)
(0 0 0)
(0 0 0)
(0 5.551115123e-17 0)
(0 0 0)
(0 0 0)
(0 0 0)
(0 0 0)
(0 0 0)
(0 0 0)
(0 0 0)
(0 -1.110223025e-16 0)
(5.551115123e-17 0 0)
(-5.551115123e-17 0 0)
(-5.551115123e-17 0 0)
(0 2.775557562e-17 0)
(-5.551115123e-17 0 0)
(-5.551115123e-17 0 0)
(-5.551115123e-17 0 0)
(-5.551115123e-17 0 0)
(0 0 0)
(-5.551115123e-17 0 0)
(-5.551115123e-17 0 0)
(-5.551115123e-17 0 0)
(-5.551115123e-17 0 0)
(-5.551115123e-17 0 0)
(0 0 0)
(-5.551115123e-17 0 0)
(-5.551115123e-17 0 0)
(-5.551115123e-17 5.551115123e-17 0)
(-5.551115123e-17 0 0)
(-5.551115123e-17 0 0)
(0 0 0)
(-5.551115123e-17 0 0)
(-5.551115123e-17 0 0)
(0 0 0)
(0 0 0)
(0 -1.110223025e-16 0)
(0 0 0)
(-5.551115123e-17 -2.775557562e-17 0)
(0 0 0)
(0 5.551115123e-17 0)
(0 2.775557562e-17 0)
(0 0 0)
(0 1.110223025e-16 0)
(0 5.551115123e-17 0)
(0 0 0)
(0 0 0)
(0 5.551115123e-17 0)
(0 0 0)
(0 0 0)
(0 0 0)
(0 5.551115123e-17 0)
(0 -5.551115123e-17 0)
(0 0 0)
(0 0 0)
(0 0 0)
(0 0 0)
(0 0 0)
(0 5.551115123e-17 0)
(0 0 0)
(0 0 0)
(0 -5.551115123e-17 0)
(0 0 0)
(0 0 0)
(0 -5.551115123e-17 0)
(0 0 0)
(0 0 0)
(0 0 0)
(5.551115123e-17 2.775557562e-17 0)
(0 0 0)
(0 0 0)
(0 0 0)
(0 0 0)
(0 0 0)
(0 0 0)
(0 0 0)
(0 0 0)
(0 0 0)
(0 0 0)
(0 0 0)
(0 0 0)
(0 0 0)
(0 5.551115123e-17 0)
(0 0 0)
(0 0 0)
(0 0 0)
(0 0 0)
(0 0 0)
(0 0 0)
(0 0 0)
(0 -1.110223025e-16 0)
(0 0 0)
(0 0 0)
(0 0 0)
(0 0 0)
(0 2.775557562e-17 0)
(0 0 0)
(0 0 0)
(0 0 0)
(0 0 0)
(0 0 0)
(0 0 0)
(0 0 0)
(0 0 0)
(0 0 0)
(0 0 0)
(0 0 0)
(0 0 0)
(0 0 0)
(0 5.551115123e-17 0)
(0 0 0)
(0 0 0)
(0 0 0)
(0 0 0)
(0 0 0)
(1.110223025e-16 5.551115123e-17 0)
(0 0 0)
(0 -5.551115123e-17 0)
(0 0 0)
(0 0 0)
(1.110223025e-16 0 0)
(5.551115123e-17 2.775557562e-17 0)
(5.551115123e-17 1.110223025e-16 0)
(1.110223025e-16 0 0)
(5.551115123e-17 2.775557562e-17 0)
(5.551115123e-17 5.551115123e-17 0)
(5.551115123e-17 0 0)
(5.551115123e-17 5.551115123e-17 0)
(0 -5.551115123e-17 0)
(5.551115123e-17 5.551115123e-17 0)
(5.551115123e-17 5.551115123e-17 0)
(5.551115123e-17 5.551115123e-17 0)
(5.551115123e-17 1.110223025e-16 0)
(5.551115123e-17 5.551115123e-17 0)
(0 -1.665334537e-16 0)
(5.551115123e-17 5.551115123e-17 0)
(5.551115123e-17 -1.110223025e-16 0)
(5.551115123e-17 5.551115123e-17 0)
(5.551115123e-17 1.665334537e-16 0)
(5.551115123e-17 5.551115123e-17 0)
(0 -1.110223025e-16 0)
(5.551115123e-17 1.110223025e-16 0)
(5.551115123e-17 5.551115123e-17 0)
(5.551115123e-17 0 0)
(0 0 0)
(-5.551115123e-17 -5.551115123e-17 0)
(-1.110223025e-16 -5.551115123e-17 0)
(0 1.665334537e-16 0)
(0 -1.110223025e-16 0)
(0 -2.775557562e-17 0)
(0 0 0)
(0 -2.775557562e-17 0)
(0 0 0)
(0 -8.326672685e-17 0)
(0 0 0)
(0 0 0)
(0 5.551115123e-17 0)
(-5.551115123e-17 -5.551115123e-17 0)
(0 0 0)
(0 5.551115123e-17 0)
(0 0 0)
(0 0 0)
(0 0 0)
(-5.551115123e-17 -5.551115123e-17 0)
(0 -5.551115123e-17 0)
(0 0 0)
(0 0 0)
(0 5.551115123e-17 0)
(0 0 0)
(-5.551115123e-17 -5.551115123e-17 0)
(0 0 0)
(0 0 0)
(0 1.110223025e-16 0)
(0 0 0)
(-5.551115123e-17 -5.551115123e-17 0)
(0 0 0)
(-5.551115123e-17 1.110223025e-16 0)
(-5.551115123e-17 1.665334537e-16 0)
(0 2.775557562e-17 0)
(0 0 0)
(0 0 0)
(-1.665334537e-16 0 0)
(0 0 0)
(0 0 0)
(0 -5.551115123e-17 0)
(0 -5.551115123e-17 0)
(-1.110223025e-16 0 0)
(0 0 0)
(0 -5.551115123e-17 0)
(0 0 0)
(0 0 0)
(0 0 0)
(-1.110223025e-16 0 0)
(0 0 0)
(0 0 0)
(0 5.551115123e-17 0)
(0 0 0)
(0 0 0)
(-1.110223025e-16 0 0)
(0 0 0)
(0 0 0)
(0 0 0)
(0 0 0)
(0 -1.110223025e-16 0)
(5.551115123e-17 5.551115123e-17 0)
(0 -5.551115123e-17 0)
(0 -5.551115123e-17 0)
(-1.110223025e-16 -5.551115123e-17 0)
(0 0 0)
(0 0 0)
(-5.551115123e-17 0 0)
(0 0 0)
(0 1.110223025e-16 0)
(0 0 0)
(0 -1.110223025e-16 0)
(0 0 0)
(0 5.551115123e-17 0)
(0 -5.551115123e-17 0)
(0 0 0)
(0 -5.551115123e-17 0)
(0 5.551115123e-17 0)
(0 -5.551115123e-17 0)
(0 0 0)
(0 0 0)
(0 0 0)
(0 0 0)
(0 0 0)
(0 0 0)
(0 0 0)
(0 0 0)
(0 5.551115123e-17 0)
(0 5.551115123e-17 0)
(0 0 0)
(-1.110223025e-16 -5.551115123e-17 0)
(0 -1.665334537e-16 0)
(0 1.110223025e-16 0)
(0 0 0)
(0 0 0)
(0 0 0)
(0 0 0)
(0 0 0)
(0 0 0)
(0 0 0)
(0 0 0)
(-5.551115123e-17 0 0)
(0 8.326672685e-17 0)
(0 0 0)
(0 0 0)
(0 0 0)
(0 5.551115123e-17 0)
(0 0 0)
(0 0 0)
(0 0 0)
(0 0 0)
(0 0 0)
(0 5.551115123e-17 0)
(0 0 0)
(0 0 0)
(0 5.551115123e-17 0)
(0 0 0)
(0 0 0)
(0 5.551115123e-17 0)
(0 0 0)
(0 0 0)
(0 0 0)
(0 0 0)
(0 -1.110223025e-16 0)
(0 5.551115123e-17 0)
(0 -5.551115123e-17 0)
(0 -5.551115123e-17 0)
(0 0 0)
(0 0 0)
(0 0 0)
(0 0 0)
(0 0 0)
(0 0 0)
(-1.110223025e-16 0 0)
(-1.110223025e-16 -2.775557562e-17 0)
(0 8.326672685e-17 0)
(-1.110223025e-16 -2.775557562e-17 0)
(-1.110223025e-16 0 0)
(-1.110223025e-16 0 0)
(-1.110223025e-16 0 0)
(0 5.551115123e-17 0)
(-1.110223025e-16 -5.551115123e-17 0)
(-1.110223025e-16 -5.551115123e-17 0)
(-1.110223025e-16 -1.665334537e-16 0)
(-1.110223025e-16 -1.110223025e-16 0)
(-1.110223025e-16 -5.551115123e-17 0)
(-1.110223025e-16 0 0)
(-1.110223025e-16 -5.551115123e-17 0)
(-1.110223025e-16 -5.551115123e-17 0)
(-1.110223025e-16 -1.110223025e-16 0)
(-1.110223025e-16 0 0)
(-1.110223025e-16 -1.110223025e-16 0)
(-1.110223025e-16 0 0)
(-1.110223025e-16 -5.551115123e-17 0)
(-1.110223025e-16 -5.551115123e-17 0)
(-1.110223025e-16 -5.551115123e-17 0)
(-1.110223025e-16 -5.551115123e-17 0)
(-1.110223025e-16 -1.110223025e-16 0)
(-5.551115123e-17 0 0)
(-1.110223025e-16 -1.110223025e-16 0)
(-1.110223025e-16 -1.110223025e-16 0)
(-1.110223025e-16 -1.665334537e-16 0)
(-1.110223025e-16 -1.110223025e-16 0)
(-1.110223025e-16 -1.110223025e-16 0)
(-1.110223025e-16 0 0)
(-1.110223025e-16 -1.110223025e-16 0)
(-1.110223025e-16 -2.775557562e-17 0)
(0 0 0)
(0 5.551115123e-17 0)
(0 2.775557562e-17 0)
(0 0 0)
(0 1.110223025e-16 0)
(0 5.551115123e-17 0)
(0 0 0)
(0 0 0)
(0 5.551115123e-17 0)
(0 0 0)
(0 0 0)
(0 0 0)
(0 5.551115123e-17 0)
(0 -5.551115123e-17 0)
(0 0 0)
(0 0 0)
(0 0 0)
(0 0 0)
(0 0 0)
(0 5.551115123e-17 0)
(0 0 0)
(0 0 0)
(0 0 0)
(0 0 0)
(0 0 0)
(-1.110223025e-16 -5.551115123e-17 0)
(0 0 0)
(0 0 0)
(0 0 0)
(0 1.110223025e-16 0)
(0 0 0)
(0 0 0)
(-5.551115123e-17 -8.326672685e-17 0)
(0 0 0)
(0 5.551115123e-17 0)
(0 5.551115123e-17 0)
(0 0 0)
(0 0 0)
(0 0 0)
(0 0 0)
(0 0 0)
(0 5.551115123e-17 0)
(0 -5.551115123e-17 0)
(0 5.551115123e-17 0)
(0 0 0)
(0 -1.110223025e-16 0)
(0 0 0)
(0 0 0)
(0 0 0)
(0 0 0)
(0 0 0)
(0 0 0)
(0 5.551115123e-17 0)
(0 0 0)
(0 0 0)
(0 0 0)
(0 0 0)
(0 -5.551115123e-17 0)
(0 0 0)
(0 0 0)
(0 1.110223025e-16 0)
(0 -5.551115123e-17 0)
(0 0 0)
(0 1.110223025e-16 0)
(0 -2.775557562e-17 0)
(0 0 0)
(0 0 0)
(0 0 0)
(0 0 0)
(0 0 0)
(0 -5.551115123e-17 0)
(0 0 0)
(0 0 0)
(0 0 0)
(0 5.551115123e-17 0)
(0 -5.551115123e-17 0)
(0 -5.551115123e-17 0)
(0 0 0)
(0 0 0)
(0 0 0)
(0 -1.110223025e-16 0)
(0 -1.110223025e-16 0)
(0 0 0)
(0 5.551115123e-17 0)
(0 0 0)
(0 0 0)
(0 0 0)
(0 0 0)
(0 0 0)
(0 -1.110223025e-16 0)
(-1.110223025e-16 -1.110223025e-16 0)
(0 0 0)
(0 0 0)
(0 -1.665334537e-16 0)
(0 0 0)
(0 0 0)
(1.110223025e-16 2.775557562e-17 0)
(0 5.551115123e-17 0)
(0 0 0)
(0 2.775557562e-17 0)
(0 -2.775557562e-17 0)
(0 0 0)
(0 5.551115123e-17 0)
(0 0 0)
(0 -5.551115123e-17 0)
(0 5.551115123e-17 0)
(0 0 0)
(0 5.551115123e-17 0)
(0 0 0)
(0 -5.551115123e-17 0)
(0 0 0)
(0 0 0)
(0 0 0)
(0 0 0)
(0 -1.110223025e-16 0)
(0 0 0)
(0 5.551115123e-17 0)
(0 0 0)
(0 -5.551115123e-17 0)
(0 0 0)
(0 0 0)
(0 0 0)
(-1.110223025e-16 -5.551115123e-17 0)
(0 0 0)
(0 -1.110223025e-16 0)
(0 0 0)
(0 0 0)
(0 0 0)
(1.110223025e-16 5.551115123e-17 0)
(0 0 0)
(0 0 0)
(0 0 0)
(0 0 0)
(0 0 0)
(0 -5.551115123e-17 0)
(0 -5.551115123e-17 0)
(-1.110223025e-16 -5.551115123e-17 0)
(0 0 0)
(0 -5.551115123e-17 0)
(0 0 0)
(0 0 0)
(0 0 0)
(-1.110223025e-16 0 0)
(0 0 0)
(0 0 0)
(0 5.551115123e-17 0)
(0 0 0)
(0 0 0)
(-1.110223025e-16 -5.551115123e-17 0)
(0 0 0)
(0 0 0)
(0 0 0)
(0 0 0)
(0 -1.110223025e-16 0)
(0 0 0)
(0 0 0)
(0 -5.551115123e-17 0)
(0 5.551115123e-17 0)
(0 0 0)
(0 0 0)
(0 0 0)
(0 -2.775557562e-17 0)
(0 -2.775557562e-17 0)
(0 -8.326672685e-17 0)
(0 0 0)
(0 -5.551115123e-17 0)
(0 0 0)
(-1.110223025e-16 -5.551115123e-17 0)
(0 0 0)
(0 0 0)
(0 0 0)
(0 0 0)
(0 0 0)
(-1.110223025e-16 -5.551115123e-17 0)
(0 -5.551115123e-17 0)
(0 0 0)
(0 0 0)
(0 5.551115123e-17 0)
(0 0 0)
(-1.110223025e-16 -5.551115123e-17 0)
(0 0 0)
(0 0 0)
(0 1.110223025e-16 0)
(0 0 0)
(0 -1.110223025e-16 0)
(0 0 0)
(0 0 0)
(0 -5.551115123e-17 0)
(0 5.551115123e-17 0)
(0 0 0)
(0 0 0)
(0 0 0)
(0 0 0)
(1.110223025e-16 0 0)
(0 0 0)
(0 0 0)
(0 -5.551115123e-17 0)
(0 -1.110223025e-16 0)
(0 0 0)
(0 0 0)
(0 -5.551115123e-17 0)
(0 0 0)
(0 -5.551115123e-17 0)
(0 -5.551115123e-17 0)
(0 -5.551115123e-17 0)
(0 0 0)
(0 0 0)
(0 0 0)
(0 0 0)
(0 0 0)
(0 0 0)
(0 5.551115123e-17 0)
(0 0 0)
(0 5.551115123e-17 0)
(0 5.551115123e-17 0)
(0 0 0)
(1.110223025e-16 -5.551115123e-17 0)
(0 0 0)
(0 1.110223025e-16 0)
(0 0 0)
(0 0 0)
(0 -2.775557562e-17 0)
(-2.220446049e-16 0 0)
(-2.220446049e-16 -2.775557562e-17 0)
(1.110223025e-16 -2.775557562e-17 0)
(-2.220446049e-16 0 0)
(-2.220446049e-16 0 0)
(-2.220446049e-16 0 0)
(-2.220446049e-16 5.551115123e-17 0)
(0 0 0)
(-2.220446049e-16 0 0)
(-2.220446049e-16 5.551115123e-17 0)
(-2.220446049e-16 0 0)
(-2.220446049e-16 0 0)
(-2.220446049e-16 0 0)
(1.110223025e-16 0 0)
(-2.220446049e-16 -5.551115123e-17 0)
(-2.220446049e-16 0 0)
(-2.220446049e-16 0 0)
(-2.220446049e-16 5.551115123e-17 0)
(-2.220446049e-16 0 0)
(1.110223025e-16 0 0)
(-2.220446049e-16 0 0)
(-2.220446049e-16 0 0)
(-2.220446049e-16 1.110223025e-16 0)
(-2.220446049e-16 0 0)
(-2.220446049e-16 -1.110223025e-16 0)
(0 0 0)
(-2.220446049e-16 0 0)
(-2.220446049e-16 -5.551115123e-17 0)
(-2.220446049e-16 0 0)
(-2.220446049e-16 0 0)
(1.110223025e-16 5.551115123e-17 0)
(0 0 0)
(0 0 0)
(1.110223025e-16 0 0)
(0 0 0)
(0 0 0)
(0 -5.551115123e-17 0)
(0 -5.551115123e-17 0)
(0 -5.551115123e-17 0)
(0 0 0)
(0 -5.551115123e-17 0)
(0 0 0)
(0 0 0)
(0 0 0)
(0 0 0)
(0 0 0)
(0 0 0)
(0 5.551115123e-17 0)
(0 0 0)
(0 0 0)
(0 -5.551115123e-17 0)
(0 0 0)
(0 0 0)
(0 0 0)
(0 0 0)
(0 -1.110223025e-16 0)
(0 0 0)
(0 0 0)
(0 -5.551115123e-17 0)
(0 5.551115123e-17 0)
(0 0 0)
(1.110223025e-16 2.775557562e-17 0)
(0 5.551115123e-17 0)
(0 0 0)
(0 2.775557562e-17 0)
(0 0 0)
(0 -1.110223025e-16 0)
(0 0 0)
(0 0 0)
(0 -5.551115123e-17 0)
(0 0 0)
(0 0 0)
(0 5.551115123e-17 0)
(0 -5.551115123e-17 0)
(0 -5.551115123e-17 0)
(0 0 0)
(0 0 0)
(0 0 0)
(0 0 0)
(0 -1.110223025e-16 0)
(0 0 0)
(0 5.551115123e-17 0)
(0 0 0)
(0 -5.551115123e-17 0)
(0 0 0)
(0 0 0)
(0 0 0)
(-1.110223025e-16 -5.551115123e-17 0)
(0 0 0)
(0 0 0)
(0 0 0)
(0 0 0)
(1.110223025e-16 5.551115123e-17 0)
(0 0 0)
(0 0 0)
(0 0 0)
(0 0 0)
(0 0 0)
(0 -5.551115123e-17 0)
(0 -5.551115123e-17 0)
(-1.110223025e-16 -5.551115123e-17 0)
(0 0 0)
(0 -5.551115123e-17 0)
(0 0 0)
(0 0 0)
(0 0 0)
(0 0 0)
(0 0 0)
(0 0 0)
(0 5.551115123e-17 0)
(0 0 0)
(0 0 0)
(0 -5.551115123e-17 0)
(0 0 0)
(0 0 0)
(0 0 0)
(0 0 0)
(0 -1.110223025e-16 0)
(0 0 0)
(0 0 0)
(0 -5.551115123e-17 0)
(0 5.551115123e-17 0)
(0 0 0)
(0 -2.775557562e-17 0)
(0 0 0)
(0 -2.775557562e-17 0)
(0 -2.775557562e-17 0)
(0 0 0)
(0 0 0)
(0 0 0)
(0 5.551115123e-17 0)
(0 0 0)
(0 0 0)
(0 5.551115123e-17 0)
(0 0 0)
(0 0 0)
(0 0 0)
(0 0 0)
(0 -5.551115123e-17 0)
(0 0 0)
(0 0 0)
(0 5.551115123e-17 0)
(0 0 0)
(0 0 0)
(0 0 0)
(0 0 0)
(0 1.110223025e-16 0)
(0 0 0)
(0 -1.110223025e-16 0)
(0 0 0)
(0 0 0)
(0 -5.551115123e-17 0)
(0 0 0)
(0 0 0)
(0 0 0)
(0 0 0)
(0 0 0)
(1.110223025e-16 2.775557562e-17 0)
(0 0 0)
(0 0 0)
(0 0 0)
(0 0 0)
(0 0 0)
(0 0 0)
(0 0 0)
(0 0 0)
(0 0 0)
(0 0 0)
(0 0 0)
(0 0 0)
(0 0 0)
(0 0 0)
(0 0 0)
(0 0 0)
(0 0 0)
(0 0 0)
(0 0 0)
(0 0 0)
(0 5.551115123e-17 0)
(0 0 0)
(0 0 0)
(0 0 0)
(0 -1.665334537e-16 0)
(0 0 0)
(0 -1.110223025e-16 0)
(1.110223025e-16 5.551115123e-17 0)
(0 0 0)
(0 0 0)
(1.110223025e-16 0 0)
(0 0 0)
(0 0 0)
(0 -5.551115123e-17 0)
(0 -5.551115123e-17 0)
(-1.110223025e-16 -5.551115123e-17 0)
(0 0 0)
(0 -5.551115123e-17 0)
(0 0 0)
(0 0 0)
(0 0 0)
(-1.110223025e-16 0 0)
(0 0 0)
(0 0 0)
(0 5.551115123e-17 0)
(0 0 0)
(0 0 0)
(-1.110223025e-16 -5.551115123e-17 0)
(0 0 0)
(0 0 0)
(0 0 0)
(0 0 0)
(0 -1.110223025e-16 0)
(0 0 0)
(0 0 0)
(0 -5.551115123e-17 0)
(0 5.551115123e-17 0)
(0 0 0)
(0 0 0)
(0 0 0)
(0 -2.775557562e-17 0)
(0 -2.775557562e-17 0)
(0 -8.326672685e-17 0)
(0 0 0)
(0 -5.551115123e-17 0)
(0 0 0)
(0 -5.551115123e-17 0)
(0 0 0)
(0 0 0)
(0 0 0)
(0 0 0)
(0 0 0)
(0 -5.551115123e-17 0)
(0 -5.551115123e-17 0)
(0 0 0)
(0 0 0)
(0 5.551115123e-17 0)
(0 0 0)
(0 -5.551115123e-17 0)
(0 0 0)
(0 0 0)
(0 1.110223025e-16 0)
(0 0 0)
(0 -1.110223025e-16 0)
(0 0 0)
(0 0 0)
(0 -5.551115123e-17 0)
(0 5.551115123e-17 0)
(0 0 0)
(-1.110223025e-16 0 0)
(-1.110223025e-16 0 0)
(-1.110223025e-16 0 0)
(0 0 0)
(-1.110223025e-16 0 0)
(-1.110223025e-16 0 0)
(-1.110223025e-16 -5.551115123e-17 0)
(-1.110223025e-16 -1.110223025e-16 0)
(1.110223025e-16 0 0)
(-1.110223025e-16 0 0)
(-1.110223025e-16 -5.551115123e-17 0)
(-1.110223025e-16 0 0)
(-1.110223025e-16 -5.551115123e-17 0)
(-1.110223025e-16 -5.551115123e-17 0)
(1.110223025e-16 -5.551115123e-17 0)
(-1.110223025e-16 0 0)
(-1.110223025e-16 0 0)
(-1.110223025e-16 0 0)
(-1.110223025e-16 0 0)
(-1.110223025e-16 0 0)
(1.110223025e-16 0 0)
(-1.110223025e-16 5.551115123e-17 0)
(-1.110223025e-16 0 0)
(-1.110223025e-16 5.551115123e-17 0)
(-1.110223025e-16 5.551115123e-17 0)
(-1.110223025e-16 0 0)
(-1.110223025e-16 -5.551115123e-17 0)
(-1.110223025e-16 0 0)
(-1.110223025e-16 1.110223025e-16 0)
(-1.110223025e-16 0 0)
(-1.110223025e-16 0 0)
(-1.110223025e-16 -2.775557562e-17 0)
(1.110223025e-16 0 0)
(1.110223025e-16 -2.775557562e-17 0)
(-2.220446049e-16 -2.775557562e-17 0)
(1.110223025e-16 0 0)
(1.110223025e-16 0 0)
(1.110223025e-16 0 0)
(1.110223025e-16 5.551115123e-17 0)
(-1.110223025e-16 0 0)
(1.110223025e-16 0 0)
(1.110223025e-16 5.551115123e-17 0)
(1.110223025e-16 0 0)
(1.110223025e-16 0 0)
(1.110223025e-16 0 0)
(1.110223025e-16 0 0)
(1.110223025e-16 -5.551115123e-17 0)
(1.110223025e-16 0 0)
(1.110223025e-16 0 0)
(1.110223025e-16 5.551115123e-17 0)
(1.110223025e-16 0 0)
(1.110223025e-16 0 0)
(1.110223025e-16 0 0)
(1.110223025e-16 0 0)
(1.110223025e-16 1.110223025e-16 0)
(1.110223025e-16 0 0)
(1.110223025e-16 -1.110223025e-16 0)
(0 0 0)
(1.110223025e-16 0 0)
(1.110223025e-16 -5.551115123e-17 0)
(1.110223025e-16 0 0)
(1.110223025e-16 0 0)
(0 5.551115123e-17 0)
(-1.110223025e-16 0 0)
(-1.110223025e-16 0 0)
(0 0 0)
(-1.110223025e-16 0 0)
(-1.110223025e-16 0 0)
(-1.110223025e-16 -5.551115123e-17 0)
(-1.110223025e-16 -5.551115123e-17 0)
(1.110223025e-16 -5.551115123e-17 0)
(-1.110223025e-16 0 0)
(-1.110223025e-16 -5.551115123e-17 0)
(-1.110223025e-16 0 0)
(-1.110223025e-16 0 0)
(-1.110223025e-16 0 0)
(1.110223025e-16 0 0)
(-1.110223025e-16 0 0)
(-1.110223025e-16 0 0)
(-1.110223025e-16 5.551115123e-17 0)
(-1.110223025e-16 0 0)
(-1.110223025e-16 0 0)
(1.110223025e-16 -5.551115123e-17 0)
(-1.110223025e-16 0 0)
(-1.110223025e-16 0 0)
(-1.110223025e-16 0 0)
(-1.110223025e-16 0 0)
(-1.110223025e-16 -1.110223025e-16 0)
(2.220446049e-16 0 0)
(-1.110223025e-16 0 0)
(-1.110223025e-16 -5.551115123e-17 0)
(-1.110223025e-16 5.551115123e-17 0)
(-1.110223025e-16 0 0)
(2.220446049e-16 2.775557562e-17 0)
(0 5.551115123e-17 0)
(0 0 0)
(0 2.775557562e-17 0)
(0 0 0)
(0 -1.110223025e-16 0)
(0 0 0)
(0 0 0)
(2.220446049e-16 -5.551115123e-17 0)
(0 0 0)
(0 0 0)
(0 5.551115123e-17 0)
(0 -5.551115123e-17 0)
(0 -5.551115123e-17 0)
(2.220446049e-16 0 0)
(0 0 0)
(0 0 0)
(0 0 0)
(0 -1.110223025e-16 0)
(0 0 0)
(2.220446049e-16 5.551115123e-17 0)
(0 0 0)
(0 -5.551115123e-17 0)
(0 0 0)
(0 0 0)
(0 0 0)
(0 -5.551115123e-17 0)
(0 0 0)
(0 0 0)
(0 0 0)
(0 0 0)
(2.220446049e-16 5.551115123e-17 0)
(1.110223025e-16 0 0)
(1.110223025e-16 0 0)
(1.110223025e-16 0 0)
(1.110223025e-16 0 0)
(1.110223025e-16 0 0)
(1.110223025e-16 -5.551115123e-17 0)
(1.110223025e-16 -5.551115123e-17 0)
(0 -5.551115123e-17 0)
(1.110223025e-16 0 0)
(1.110223025e-16 -5.551115123e-17 0)
(1.110223025e-16 0 0)
(1.110223025e-16 0 0)
(1.110223025e-16 0 0)
(0 0 0)
(1.110223025e-16 0 0)
(1.110223025e-16 0 0)
(1.110223025e-16 5.551115123e-17 0)
(1.110223025e-16 0 0)
(1.110223025e-16 0 0)
(0 -5.551115123e-17 0)
(1.110223025e-16 0 0)
(1.110223025e-16 0 0)
(1.110223025e-16 0 0)
(1.110223025e-16 0 0)
(1.110223025e-16 -1.110223025e-16 0)
(0 0 0)
(1.110223025e-16 0 0)
(1.110223025e-16 -5.551115123e-17 0)
(1.110223025e-16 5.551115123e-17 0)
(1.110223025e-16 0 0)
(-1.110223025e-16 -2.775557562e-17 0)
(-2.220446049e-16 0 0)
(-2.220446049e-16 -2.775557562e-17 0)
(-2.220446049e-16 -2.775557562e-17 0)
(-2.220446049e-16 0 0)
(-2.220446049e-16 0 0)
(-2.220446049e-16 0 0)
(-2.220446049e-16 5.551115123e-17 0)
(0 0 0)
(-2.220446049e-16 0 0)
(-2.220446049e-16 5.551115123e-17 0)
(-2.220446049e-16 0 0)
(-2.220446049e-16 0 0)
(-2.220446049e-16 0 0)
(0 0 0)
(-2.220446049e-16 -5.551115123e-17 0)
(-2.220446049e-16 0 0)
(-2.220446049e-16 0 0)
(-2.220446049e-16 5.551115123e-17 0)
(-2.220446049e-16 0 0)
(0 0 0)
(-2.220446049e-16 0 0)
(-2.220446049e-16 0 0)
(-2.220446049e-16 1.110223025e-16 0)
(-2.220446049e-16 0 0)
(-2.220446049e-16 -1.110223025e-16 0)
(0 0 0)
(-2.220446049e-16 0 0)
(-2.220446049e-16 -5.551115123e-17 0)
(-2.220446049e-16 0 0)
(-2.220446049e-16 0 0)
(0 0 0)
(0 0 0)
(0 0 0)
(-1.110223025e-16 0 0)
(0 0 0)
(0 0 0)
(0 -5.551115123e-17 0)
(0 -1.110223025e-16 0)
(0 0 0)
(0 0 0)
(0 -5.551115123e-17 0)
(0 0 0)
(0 -5.551115123e-17 0)
(0 -5.551115123e-17 0)
(0 -5.551115123e-17 0)
(0 0 0)
(0 0 0)
(0 0 0)
(0 0 0)
(0 0 0)
(0 0 0)
(0 5.551115123e-17 0)
(0 0 0)
(0 5.551115123e-17 0)
(0 5.551115123e-17 0)
(0 0 0)
(-1.110223025e-16 -5.551115123e-17 0)
(0 0 0)
(0 1.110223025e-16 0)
(0 0 0)
(0 0 0)
(1.110223025e-16 0 0)
(0 0 0)
(0 -2.775557562e-17 0)
(-1.110223025e-16 -2.775557562e-17 0)
(0 -8.326672685e-17 0)
(0 0 0)
(0 -5.551115123e-17 0)
(0 0 0)
(-1.110223025e-16 -5.551115123e-17 0)
(0 0 0)
(0 0 0)
(0 0 0)
(0 0 0)
(0 0 0)
(-1.110223025e-16 -5.551115123e-17 0)
(0 -5.551115123e-17 0)
(0 0 0)
(0 0 0)
(0 5.551115123e-17 0)
(0 0 0)
(-1.110223025e-16 -5.551115123e-17 0)
(0 0 0)
(0 0 0)
(0 1.110223025e-16 0)
(0 0 0)
(0 -1.110223025e-16 0)
(0 0 0)
(0 0 0)
(0 -5.551115123e-17 0)
(0 5.551115123e-17 0)
(0 0 0)
(-2.220446049e-16 -2.775557562e-17 0)
(0 0 0)
(0 0 0)
(-1.110223025e-16 0 0)
(0 0 0)
(0 0 0)
(0 -5.551115123e-17 0)
(0 0 0)
(-2.220446049e-16 0 0)
(0 0 0)
(0 5.551115123e-17 0)
(0 -5.551115123e-17 0)
(0 -5.551115123e-17 0)
(0 0 0)
(-2.220446049e-16 0 0)
(0 0 0)
(0 -1.110223025e-16 0)
(0 -1.110223025e-16 0)
(0 0 0)
(0 5.551115123e-17 0)
(-2.220446049e-16 0 0)
(0 0 0)
(0 0 0)
(0 0 0)
(0 0 0)
(0 -1.110223025e-16 0)
(-3.330669074e-16 -1.110223025e-16 0)
(0 0 0)
(0 0 0)
(0 -1.665334537e-16 0)
(0 0 0)
(0 0 0)
(0 0 0)
(0 0 0)
(-1.110223025e-16 0 0)
(0 -2.775557562e-17 0)
(0 1.110223025e-16 0)
(0 0 0)
(0 -1.110223025e-16 0)
(2.220446049e-16 0 0)
(0 5.551115123e-17 0)
(0 -5.551115123e-17 0)
(0 0 0)
(0 0 0)
(0 -5.551115123e-17 0)
(2.220446049e-16 -5.551115123e-17 0)
(0 0 0)
(0 0 0)
(0 0 0)
(0 0 0)
(0 0 0)
(2.220446049e-16 0 0)
(0 5.551115123e-17 0)
(0 0 0)
(0 5.551115123e-17 0)
(0 5.551115123e-17 0)
(0 0 0)
(1.110223025e-16 -5.551115123e-17 0)
(0 0 0)
(0 0 0)
(0 0 0)
(0 0 0)
(0 -2.775557562e-17 0)
(0 0 0)
(0 -2.775557562e-17 0)
(0 -2.775557562e-17 0)
(0 0 0)
(0 0 0)
(0 0 0)
(0 5.551115123e-17 0)
(-1.110223025e-16 0 0)
(0 0 0)
(0 5.551115123e-17 0)
(0 0 0)
(0 0 0)
(0 0 0)
(0 0 0)
(0 -5.551115123e-17 0)
(0 0 0)
(0 0 0)
(0 5.551115123e-17 0)
(0 0 0)
(0 0 0)
(0 0 0)
(0 0 0)
(0 1.110223025e-16 0)
(0 0 0)
(0 -1.110223025e-16 0)
(-1.110223025e-16 0 0)
(0 0 0)
(0 -5.551115123e-17 0)
(0 0 0)
(0 0 0)
(1.110223025e-16 5.551115123e-17 0)
(0 0 0)
(0 0 0)
(0 0 0)
(0 0 0)
(0 0 0)
(0 -5.551115123e-17 0)
(0 -5.551115123e-17 0)
(-2.220446049e-16 -5.551115123e-17 0)
(0 0 0)
(0 -5.551115123e-17 0)
(0 0 0)
(0 0 0)
(0 0 0)
(-1.110223025e-16 0 0)
(0 0 0)
(0 0 0)
(0 5.551115123e-17 0)
(0 0 0)
(0 0 0)
(-1.110223025e-16 -5.551115123e-17 0)
(0 0 0)
(0 0 0)
(0 0 0)
(0 0 0)
(0 -1.110223025e-16 0)
(-1.110223025e-16 0 0)
(0 0 0)
(0 -5.551115123e-17 0)
(0 5.551115123e-17 0)
(0 0 0)
(1.110223025e-16 2.775557562e-17 0)
(2.220446049e-16 5.551115123e-17 0)
(2.220446049e-16 0 0)
(0 2.775557562e-17 0)
(2.220446049e-16 0 0)
(2.220446049e-16 -1.110223025e-16 0)
(2.220446049e-16 0 0)
(2.220446049e-16 0 0)
(1.110223025e-16 -5.551115123e-17 0)
(2.220446049e-16 0 0)
(2.220446049e-16 0 0)
(2.220446049e-16 5.551115123e-17 0)
(2.220446049e-16 -5.551115123e-17 0)
(2.220446049e-16 -5.551115123e-17 0)
(1.110223025e-16 0 0)
(2.220446049e-16 0 0)
(2.220446049e-16 0 0)
(2.220446049e-16 0 0)
(2.220446049e-16 -1.110223025e-16 0)
(2.220446049e-16 0 0)
(1.110223025e-16 5.551115123e-17 0)
(2.220446049e-16 0 0)
(2.220446049e-16 -5.551115123e-17 0)
(2.220446049e-16 0 0)
(2.220446049e-16 0 0)
(2.220446049e-16 0 0)
(-1.110223025e-16 -5.551115123e-17 0)
(2.220446049e-16 0 0)
(2.220446049e-16 0 0)
(2.220446049e-16 0 0)
(2.220446049e-16 0 0)
(1.110223025e-16 5.551115123e-17 0)
(0 0 0)
(0 0 0)
(1.110223025e-16 0 0)
(0 0 0)
(0 0 0)
(0 -5.551115123e-17 0)
(0 -5.551115123e-17 0)
(-1.110223025e-16 -5.551115123e-17 0)
(0 0 0)
(0 -5.551115123e-17 0)
(0 0 0)
(0 0 0)
(0 0 0)
(-1.110223025e-16 0 0)
(0 0 0)
(0 0 0)
(0 5.551115123e-17 0)
(0 0 0)
(0 0 0)
(-1.110223025e-16 -5.551115123e-17 0)
(0 0 0)
(0 0 0)
(0 0 0)
(0 0 0)
(0 -1.110223025e-16 0)
(0 0 0)
(0 0 0)
(0 -5.551115123e-17 0)
(0 5.551115123e-17 0)
(0 0 0)
)
;
    }
    mirrorFace_top
    {
        type            patch;
        nFaces          0;
        startFace       5473;
    }
    region0_to_wallFilmRegion_mirrorFace
    {
        type            mappedWall;
        inGroups        List<word> 
2
(
wall
mappedPatch
)
;
        nFaces          0;
        startFace       5473;
        sampleMode      nearestPatchFace;
        sampleRegion    region0;
        samplePatch     region0_to_wallFilmRegion_mirrorFace;
        offsetMode      nonuniform;
        offsets         nonuniform List<vector> 0();
    }
    procBoundary1to0
    {
        type            processor;
        inGroups        List<word> 1(processor);
        nFaces          52;
        startFace       5473;
        matchTolerance  0.0001;
        myProcNo        1;
        neighbProcNo    0;
    }
    procBoundary1to2
    {
        type            processor;
        inGroups        List<word> 1(processor);
        nFaces          33;
        startFace       5525;
        matchTolerance  0.0001;
        myProcNo        1;
        neighbProcNo    2;
    }
)

// ************************************************************************* //
