/*--------------------------------*- C++ -*----------------------------------*\
  =========                 |
  \\      /  F ield         | OpenFOAM: The Open Source CFD Toolbox
   \\    /   O peration     | Website:  https://openfoam.org
    \\  /    A nd           | Version:  8
     \\/     M anipulation  |
\*---------------------------------------------------------------------------*/
FoamFile
{
    version     2.0;
    format      ascii;
    class       volScalarField;
    location    "0";
    object      alphat;
}
// * * * * * * * * * * * * * * * * * * * * * * * * * * * * * * * * * * * * * //

dimensions      [1 -1 -1 0 0 0 0];

internalField   uniform 1e-07;

boundaryField
{
    walls
    {
        type            compressible::alphatWallFunction;
        Prt             0.85;
        value           uniform 0;
    }
    region0_to_wallFilmRegion_wallFilmFace
    {
        type            alphatFilmWallFunction;
        B               5.5;
        yPlusCrit       11.05;
        Cmu             0.09;
        kappa           0.41;
        Prt             0.85;
        value           uniform 0;
    }
    region0_to_wallFilmRegion_mirrorFace
    {
        type            alphatFilmWallFunction;
        B               5.5;
        yPlusCrit       11.05;
        Cmu             0.09;
        kappa           0.41;
        Prt             0.85;
        value           uniform 0;
    }
    procBoundary3to0
    {
        type            processor;
        value           uniform 1e-07;
    }
    procBoundary3to1
    {
        type            processor;
        value           uniform 1e-07;
    }
    procBoundary3to2
    {
        type            processor;
        value           uniform 1e-07;
    }
}


// ************************************************************************* //
