/*--------------------------------*- C++ -*----------------------------------*\
  =========                 |
  \\      /  F ield         | OpenFOAM: The Open Source CFD Toolbox
   \\    /   O peration     | Website:  https://openfoam.org
    \\  /    A nd           | Version:  8
     \\/     M anipulation  |
\*---------------------------------------------------------------------------*/
FoamFile
{
    version     2.0;
    format      ascii;
    class       polyBoundaryMesh;
    location    "constant/polyMesh";
    object      boundary;
}
// * * * * * * * * * * * * * * * * * * * * * * * * * * * * * * * * * * * * * //

6
(
    walls
    {
        type            wall;
        inGroups        List<word> 1(wall);
        nFaces          5030;
        startFace       196504;
    }
    region0_to_wallFilmRegion_wallFilmFace
    {
        type            mappedWall;
        inGroups        List<word> 
2
(
wall
mappedPatch
)
;
        nFaces          1019;
        startFace       201534;
        sampleMode      nearestPatchFace;
        sampleRegion    wallFilmRegion;
        samplePatch     region0_to_wallFilmRegion_wallFilmFace;
        offsetMode      nonuniform;
        offsets         nonuniform List<vector> 
1019
(
(0 0 0)
(5.551115123e-17 5.551115123e-17 0)
(1.110223025e-16 5.551115123e-17 0)
(0 -1.665334537e-16 0)
(0 2.775557562e-17 0)
(0 0 0)
(0 2.775557562e-17 0)
(0 0 0)
(0 8.326672685e-17 0)
(0 0 0)
(0 0 0)
(0 -5.551115123e-17 0)
(5.551115123e-17 5.551115123e-17 0)
(0 0 0)
(0 -5.551115123e-17 0)
(0 0 0)
(0 0 0)
(0 0 0)
(5.551115123e-17 5.551115123e-17 0)
(0 5.551115123e-17 0)
(0 0 0)
(0 0 0)
(0 -5.551115123e-17 0)
(0 0 0)
(5.551115123e-17 5.551115123e-17 0)
(0 0 0)
(0 0 0)
(0 -1.110223025e-16 0)
(0 0 0)
(5.551115123e-17 5.551115123e-17 0)
(0 0 0)
(5.551115123e-17 -1.110223025e-16 0)
(5.551115123e-17 -1.665334537e-16 0)
(5.551115123e-17 5.551115123e-17 0)
(0 -2.775557562e-17 0)
(0 0 0)
(0 0 0)
(1.665334537e-16 0 0)
(0 0 0)
(0 0 0)
(0 5.551115123e-17 0)
(0 5.551115123e-17 0)
(1.110223025e-16 0 0)
(0 0 0)
(0 5.551115123e-17 0)
(0 0 0)
(0 0 0)
(0 0 0)
(1.110223025e-16 0 0)
(0 0 0)
(0 0 0)
(0 -5.551115123e-17 0)
(0 0 0)
(0 0 0)
(1.110223025e-16 0 0)
(0 0 0)
(0 0 0)
(0 0 0)
(0 0 0)
(0 1.110223025e-16 0)
(-5.551115123e-17 -5.551115123e-17 0)
(0 5.551115123e-17 0)
(0 5.551115123e-17 0)
(-5.551115123e-17 -5.551115123e-17 0)
(1.110223025e-16 5.551115123e-17 0)
(0 0 0)
(0 0 0)
(5.551115123e-17 0 0)
(0 0 0)
(0 -1.110223025e-16 0)
(0 0 0)
(0 1.110223025e-16 0)
(0 0 0)
(0 -5.551115123e-17 0)
(0 5.551115123e-17 0)
(0 0 0)
(0 5.551115123e-17 0)
(0 -5.551115123e-17 0)
(0 5.551115123e-17 0)
(0 0 0)
(0 0 0)
(0 0 0)
(0 0 0)
(0 0 0)
(0 0 0)
(0 0 0)
(0 0 0)
(0 -5.551115123e-17 0)
(0 -5.551115123e-17 0)
(0 0 0)
(1.110223025e-16 5.551115123e-17 0)
(0 1.665334537e-16 0)
(0 -1.110223025e-16 0)
(0 0 0)
(0 0 0)
(0 0 0)
(0 0 0)
(0 0 0)
(5.551115123e-17 0 0)
(0 -8.326672685e-17 0)
(0 0 0)
(0 0 0)
(0 0 0)
(0 -5.551115123e-17 0)
(0 0 0)
(0 0 0)
(0 0 0)
(0 0 0)
(0 0 0)
(0 -5.551115123e-17 0)
(0 0 0)
(0 0 0)
(0 -5.551115123e-17 0)
(0 0 0)
(0 0 0)
(0 -5.551115123e-17 0)
(0 0 0)
(0 0 0)
(0 0 0)
(0 0 0)
(0 1.110223025e-16 0)
(0 -5.551115123e-17 0)
(0 5.551115123e-17 0)
(0 5.551115123e-17 0)
(0 0 0)
(0 0 0)
(0 0 0)
(1.110223025e-16 0 0)
(1.110223025e-16 2.775557562e-17 0)
(0 -8.326672685e-17 0)
(1.110223025e-16 2.775557562e-17 0)
(1.110223025e-16 0 0)
(1.110223025e-16 0 0)
(1.110223025e-16 0 0)
(0 -5.551115123e-17 0)
(1.110223025e-16 5.551115123e-17 0)
(1.110223025e-16 5.551115123e-17 0)
(1.110223025e-16 1.665334537e-16 0)
(1.110223025e-16 1.110223025e-16 0)
(1.110223025e-16 5.551115123e-17 0)
(1.110223025e-16 0 0)
(1.110223025e-16 5.551115123e-17 0)
(1.110223025e-16 5.551115123e-17 0)
(1.110223025e-16 1.110223025e-16 0)
(1.110223025e-16 0 0)
(1.110223025e-16 1.110223025e-16 0)
(1.110223025e-16 0 0)
(1.110223025e-16 5.551115123e-17 0)
(1.110223025e-16 5.551115123e-17 0)
(1.110223025e-16 5.551115123e-17 0)
(1.110223025e-16 5.551115123e-17 0)
(1.110223025e-16 1.110223025e-16 0)
(5.551115123e-17 0 0)
(1.110223025e-16 1.110223025e-16 0)
(1.110223025e-16 1.110223025e-16 0)
(1.110223025e-16 1.665334537e-16 0)
(1.110223025e-16 1.110223025e-16 0)
(1.110223025e-16 2.775557562e-17 0)
(0 0 0)
(0 -5.551115123e-17 0)
(0 -2.775557562e-17 0)
(0 0 0)
(0 -1.110223025e-16 0)
(0 -5.551115123e-17 0)
(0 0 0)
(0 0 0)
(0 -5.551115123e-17 0)
(0 0 0)
(0 0 0)
(0 0 0)
(0 -5.551115123e-17 0)
(0 5.551115123e-17 0)
(0 0 0)
(0 0 0)
(0 0 0)
(0 0 0)
(0 0 0)
(0 -5.551115123e-17 0)
(0 0 0)
(0 0 0)
(0 0 0)
(0 0 0)
(0 0 0)
(1.110223025e-16 5.551115123e-17 0)
(0 0 0)
(0 0 0)
(0 0 0)
(0 -1.110223025e-16 0)
(5.551115123e-17 8.326672685e-17 0)
(0 0 0)
(0 -5.551115123e-17 0)
(0 -5.551115123e-17 0)
(0 0 0)
(0 0 0)
(0 0 0)
(0 0 0)
(0 0 0)
(0 -5.551115123e-17 0)
(0 5.551115123e-17 0)
(0 -5.551115123e-17 0)
(0 0 0)
(0 1.110223025e-16 0)
(0 0 0)
(0 0 0)
(0 0 0)
(0 0 0)
(0 0 0)
(0 0 0)
(0 -5.551115123e-17 0)
(0 0 0)
(0 0 0)
(0 0 0)
(0 0 0)
(0 5.551115123e-17 0)
(0 0 0)
(0 0 0)
(0 -1.110223025e-16 0)
(0 5.551115123e-17 0)
(0 0 0)
(0 2.775557562e-17 0)
(0 0 0)
(0 0 0)
(0 0 0)
(0 0 0)
(0 0 0)
(0 5.551115123e-17 0)
(0 0 0)
(0 0 0)
(0 0 0)
(0 -5.551115123e-17 0)
(0 5.551115123e-17 0)
(0 5.551115123e-17 0)
(0 0 0)
(0 0 0)
(0 0 0)
(0 1.110223025e-16 0)
(0 1.110223025e-16 0)
(0 0 0)
(0 -5.551115123e-17 0)
(0 0 0)
(0 0 0)
(0 0 0)
(0 0 0)
(0 0 0)
(0 1.110223025e-16 0)
(1.110223025e-16 1.110223025e-16 0)
(0 0 0)
(0 0 0)
(0 1.665334537e-16 0)
(0 0 0)
(-1.110223025e-16 -2.775557562e-17 0)
(0 -5.551115123e-17 0)
(0 0 0)
(0 -2.775557562e-17 0)
(0 2.775557562e-17 0)
(0 0 0)
(0 -5.551115123e-17 0)
(0 0 0)
(0 5.551115123e-17 0)
(0 -5.551115123e-17 0)
(0 0 0)
(0 -5.551115123e-17 0)
(0 0 0)
(0 5.551115123e-17 0)
(0 0 0)
(0 0 0)
(0 0 0)
(0 0 0)
(0 1.110223025e-16 0)
(0 0 0)
(0 -5.551115123e-17 0)
(0 0 0)
(0 5.551115123e-17 0)
(0 0 0)
(0 0 0)
(0 0 0)
(1.110223025e-16 5.551115123e-17 0)
(0 0 0)
(0 1.110223025e-16 0)
(0 0 0)
(-1.110223025e-16 -5.551115123e-17 0)
(0 0 0)
(0 0 0)
(0 0 0)
(0 0 0)
(0 0 0)
(0 5.551115123e-17 0)
(0 5.551115123e-17 0)
(1.110223025e-16 5.551115123e-17 0)
(0 0 0)
(0 5.551115123e-17 0)
(0 0 0)
(0 0 0)
(0 0 0)
(1.110223025e-16 0 0)
(0 0 0)
(0 0 0)
(0 -5.551115123e-17 0)
(0 0 0)
(0 0 0)
(1.110223025e-16 5.551115123e-17 0)
(0 0 0)
(0 0 0)
(0 0 0)
(0 0 0)
(0 1.110223025e-16 0)
(0 0 0)
(0 0 0)
(0 5.551115123e-17 0)
(0 -5.551115123e-17 0)
(0 0 0)
(0 0 0)
(0 2.775557562e-17 0)
(0 2.775557562e-17 0)
(0 8.326672685e-17 0)
(0 0 0)
(0 5.551115123e-17 0)
(0 0 0)
(1.110223025e-16 5.551115123e-17 0)
(0 0 0)
(0 0 0)
(0 0 0)
(0 0 0)
(0 0 0)
(1.110223025e-16 5.551115123e-17 0)
(0 5.551115123e-17 0)
(0 0 0)
(0 0 0)
(0 -5.551115123e-17 0)
(0 0 0)
(1.110223025e-16 5.551115123e-17 0)
(0 0 0)
(0 0 0)
(0 -1.110223025e-16 0)
(0 0 0)
(0 1.110223025e-16 0)
(0 0 0)
(0 0 0)
(0 5.551115123e-17 0)
(0 -5.551115123e-17 0)
(0 0 0)
(0 0 0)
(0 0 0)
(-1.110223025e-16 0 0)
(0 0 0)
(0 0 0)
(0 5.551115123e-17 0)
(0 1.110223025e-16 0)
(0 0 0)
(0 0 0)
(0 5.551115123e-17 0)
(0 0 0)
(0 5.551115123e-17 0)
(0 5.551115123e-17 0)
(0 5.551115123e-17 0)
(0 0 0)
(0 0 0)
(0 0 0)
(0 0 0)
(0 0 0)
(0 0 0)
(0 -5.551115123e-17 0)
(0 0 0)
(0 -5.551115123e-17 0)
(0 -5.551115123e-17 0)
(0 0 0)
(-1.110223025e-16 5.551115123e-17 0)
(0 0 0)
(0 -1.110223025e-16 0)
(0 0 0)
(0 2.775557562e-17 0)
(2.220446049e-16 0 0)
(2.220446049e-16 2.775557562e-17 0)
(-1.110223025e-16 2.775557562e-17 0)
(2.220446049e-16 0 0)
(2.220446049e-16 0 0)
(2.220446049e-16 0 0)
(2.220446049e-16 -5.551115123e-17 0)
(0 0 0)
(2.220446049e-16 0 0)
(2.220446049e-16 -5.551115123e-17 0)
(2.220446049e-16 0 0)
(2.220446049e-16 0 0)
(2.220446049e-16 0 0)
(-1.110223025e-16 0 0)
(2.220446049e-16 5.551115123e-17 0)
(2.220446049e-16 0 0)
(2.220446049e-16 0 0)
(2.220446049e-16 -5.551115123e-17 0)
(2.220446049e-16 0 0)
(-1.110223025e-16 0 0)
(2.220446049e-16 0 0)
(2.220446049e-16 0 0)
(2.220446049e-16 -1.110223025e-16 0)
(2.220446049e-16 0 0)
(2.220446049e-16 1.110223025e-16 0)
(0 0 0)
(2.220446049e-16 0 0)
(2.220446049e-16 5.551115123e-17 0)
(-1.110223025e-16 -5.551115123e-17 0)
(0 0 0)
(0 0 0)
(-1.110223025e-16 0 0)
(0 0 0)
(0 0 0)
(0 5.551115123e-17 0)
(0 5.551115123e-17 0)
(0 5.551115123e-17 0)
(0 0 0)
(0 5.551115123e-17 0)
(0 0 0)
(0 0 0)
(0 0 0)
(0 0 0)
(0 0 0)
(0 0 0)
(0 -5.551115123e-17 0)
(0 0 0)
(0 0 0)
(0 5.551115123e-17 0)
(0 0 0)
(0 0 0)
(0 0 0)
(0 0 0)
(0 1.110223025e-16 0)
(0 0 0)
(0 0 0)
(0 5.551115123e-17 0)
(-1.110223025e-16 -2.775557562e-17 0)
(0 -5.551115123e-17 0)
(0 0 0)
(0 -2.775557562e-17 0)
(0 0 0)
(0 1.110223025e-16 0)
(0 0 0)
(0 0 0)
(0 5.551115123e-17 0)
(0 0 0)
(0 0 0)
(0 -5.551115123e-17 0)
(0 5.551115123e-17 0)
(0 5.551115123e-17 0)
(0 0 0)
(0 0 0)
(0 0 0)
(0 0 0)
(0 1.110223025e-16 0)
(0 0 0)
(0 -5.551115123e-17 0)
(0 0 0)
(0 5.551115123e-17 0)
(0 0 0)
(0 0 0)
(0 0 0)
(1.110223025e-16 5.551115123e-17 0)
(0 0 0)
(0 0 0)
(-1.110223025e-16 -5.551115123e-17 0)
(0 0 0)
(0 0 0)
(0 0 0)
(0 0 0)
(0 0 0)
(0 5.551115123e-17 0)
(0 5.551115123e-17 0)
(1.110223025e-16 5.551115123e-17 0)
(0 0 0)
(0 5.551115123e-17 0)
(0 0 0)
(0 0 0)
(0 0 0)
(0 0 0)
(0 0 0)
(0 0 0)
(0 -5.551115123e-17 0)
(0 0 0)
(0 0 0)
(0 5.551115123e-17 0)
(0 0 0)
(0 0 0)
(0 0 0)
(0 0 0)
(0 1.110223025e-16 0)
(0 0 0)
(0 0 0)
(0 5.551115123e-17 0)
(0 2.775557562e-17 0)
(0 0 0)
(0 2.775557562e-17 0)
(0 2.775557562e-17 0)
(0 0 0)
(0 0 0)
(0 0 0)
(0 -5.551115123e-17 0)
(0 0 0)
(0 0 0)
(0 -5.551115123e-17 0)
(0 0 0)
(0 0 0)
(0 0 0)
(0 0 0)
(0 5.551115123e-17 0)
(0 0 0)
(0 0 0)
(0 -5.551115123e-17 0)
(0 0 0)
(0 0 0)
(0 0 0)
(0 0 0)
(0 -1.110223025e-16 0)
(0 0 0)
(0 1.110223025e-16 0)
(0 0 0)
(0 0 0)
(0 5.551115123e-17 0)
(0 0 0)
(0 0 0)
(0 0 0)
(-1.110223025e-16 -2.775557562e-17 0)
(0 0 0)
(0 0 0)
(0 0 0)
(0 0 0)
(0 0 0)
(0 0 0)
(0 0 0)
(0 0 0)
(0 0 0)
(0 0 0)
(0 0 0)
(0 0 0)
(0 0 0)
(0 0 0)
(0 0 0)
(0 0 0)
(0 0 0)
(0 0 0)
(0 0 0)
(0 0 0)
(0 -5.551115123e-17 0)
(0 0 0)
(0 0 0)
(0 0 0)
(0 1.665334537e-16 0)
(-1.110223025e-16 -5.551115123e-17 0)
(0 0 0)
(0 0 0)
(-1.110223025e-16 0 0)
(0 0 0)
(0 0 0)
(0 5.551115123e-17 0)
(0 5.551115123e-17 0)
(1.110223025e-16 5.551115123e-17 0)
(0 0 0)
(0 5.551115123e-17 0)
(0 0 0)
(0 0 0)
(0 0 0)
(1.110223025e-16 0 0)
(0 0 0)
(0 0 0)
(0 -5.551115123e-17 0)
(0 0 0)
(0 0 0)
(1.110223025e-16 5.551115123e-17 0)
(0 0 0)
(0 0 0)
(0 0 0)
(0 0 0)
(0 1.110223025e-16 0)
(0 0 0)
(0 0 0)
(0 5.551115123e-17 0)
(0 0 0)
(0 0 0)
(0 2.775557562e-17 0)
(0 2.775557562e-17 0)
(0 8.326672685e-17 0)
(0 0 0)
(0 5.551115123e-17 0)
(0 0 0)
(0 5.551115123e-17 0)
(0 0 0)
(0 0 0)
(0 0 0)
(0 0 0)
(0 0 0)
(0 5.551115123e-17 0)
(0 5.551115123e-17 0)
(0 0 0)
(0 0 0)
(0 -5.551115123e-17 0)
(0 0 0)
(0 5.551115123e-17 0)
(0 0 0)
(0 0 0)
(0 -1.110223025e-16 0)
(0 0 0)
(0 1.110223025e-16 0)
(0 0 0)
(0 0 0)
(0 5.551115123e-17 0)
(1.110223025e-16 0 0)
(1.110223025e-16 0 0)
(1.110223025e-16 0 0)
(0 0 0)
(1.110223025e-16 0 0)
(1.110223025e-16 0 0)
(1.110223025e-16 5.551115123e-17 0)
(1.110223025e-16 1.110223025e-16 0)
(-1.110223025e-16 0 0)
(1.110223025e-16 0 0)
(1.110223025e-16 5.551115123e-17 0)
(1.110223025e-16 0 0)
(1.110223025e-16 5.551115123e-17 0)
(1.110223025e-16 5.551115123e-17 0)
(-1.110223025e-16 5.551115123e-17 0)
(1.110223025e-16 0 0)
(1.110223025e-16 0 0)
(1.110223025e-16 0 0)
(1.110223025e-16 0 0)
(1.110223025e-16 0 0)
(-1.110223025e-16 0 0)
(1.110223025e-16 -5.551115123e-17 0)
(1.110223025e-16 0 0)
(1.110223025e-16 -5.551115123e-17 0)
(1.110223025e-16 -5.551115123e-17 0)
(1.110223025e-16 0 0)
(1.110223025e-16 5.551115123e-17 0)
(1.110223025e-16 0 0)
(1.110223025e-16 -1.110223025e-16 0)
(1.110223025e-16 2.775557562e-17 0)
(-1.110223025e-16 0 0)
(-1.110223025e-16 2.775557562e-17 0)
(2.220446049e-16 2.775557562e-17 0)
(-1.110223025e-16 0 0)
(-1.110223025e-16 0 0)
(-1.110223025e-16 0 0)
(-1.110223025e-16 -5.551115123e-17 0)
(1.110223025e-16 0 0)
(-1.110223025e-16 0 0)
(-1.110223025e-16 -5.551115123e-17 0)
(-1.110223025e-16 0 0)
(-1.110223025e-16 0 0)
(-1.110223025e-16 0 0)
(-1.110223025e-16 0 0)
(-1.110223025e-16 5.551115123e-17 0)
(-1.110223025e-16 0 0)
(-1.110223025e-16 0 0)
(-1.110223025e-16 -5.551115123e-17 0)
(-1.110223025e-16 0 0)
(-1.110223025e-16 0 0)
(-1.110223025e-16 0 0)
(-1.110223025e-16 0 0)
(-1.110223025e-16 -1.110223025e-16 0)
(-1.110223025e-16 0 0)
(-1.110223025e-16 1.110223025e-16 0)
(0 0 0)
(-1.110223025e-16 0 0)
(-1.110223025e-16 5.551115123e-17 0)
(0 -5.551115123e-17 0)
(1.110223025e-16 0 0)
(1.110223025e-16 0 0)
(0 0 0)
(1.110223025e-16 0 0)
(1.110223025e-16 0 0)
(1.110223025e-16 5.551115123e-17 0)
(1.110223025e-16 5.551115123e-17 0)
(-1.110223025e-16 5.551115123e-17 0)
(1.110223025e-16 0 0)
(1.110223025e-16 5.551115123e-17 0)
(1.110223025e-16 0 0)
(1.110223025e-16 0 0)
(1.110223025e-16 0 0)
(-1.110223025e-16 0 0)
(1.110223025e-16 0 0)
(1.110223025e-16 0 0)
(1.110223025e-16 -5.551115123e-17 0)
(1.110223025e-16 0 0)
(1.110223025e-16 0 0)
(-1.110223025e-16 5.551115123e-17 0)
(1.110223025e-16 0 0)
(1.110223025e-16 0 0)
(1.110223025e-16 0 0)
(1.110223025e-16 0 0)
(1.110223025e-16 1.110223025e-16 0)
(-2.220446049e-16 0 0)
(1.110223025e-16 0 0)
(1.110223025e-16 5.551115123e-17 0)
(-2.220446049e-16 -2.775557562e-17 0)
(0 -5.551115123e-17 0)
(0 0 0)
(0 -2.775557562e-17 0)
(0 0 0)
(0 1.110223025e-16 0)
(0 0 0)
(0 0 0)
(-2.220446049e-16 5.551115123e-17 0)
(0 0 0)
(0 0 0)
(0 -5.551115123e-17 0)
(0 5.551115123e-17 0)
(0 5.551115123e-17 0)
(-2.220446049e-16 0 0)
(0 0 0)
(0 0 0)
(0 0 0)
(0 1.110223025e-16 0)
(0 0 0)
(-2.220446049e-16 -5.551115123e-17 0)
(0 0 0)
(0 5.551115123e-17 0)
(0 0 0)
(0 0 0)
(0 0 0)
(0 5.551115123e-17 0)
(0 0 0)
(0 0 0)
(0 0 0)
(-2.220446049e-16 -5.551115123e-17 0)
(-1.110223025e-16 0 0)
(-1.110223025e-16 0 0)
(-1.110223025e-16 0 0)
(-1.110223025e-16 0 0)
(-1.110223025e-16 0 0)
(-1.110223025e-16 5.551115123e-17 0)
(-1.110223025e-16 5.551115123e-17 0)
(0 5.551115123e-17 0)
(-1.110223025e-16 0 0)
(-1.110223025e-16 5.551115123e-17 0)
(-1.110223025e-16 0 0)
(-1.110223025e-16 0 0)
(-1.110223025e-16 0 0)
(0 0 0)
(-1.110223025e-16 0 0)
(-1.110223025e-16 0 0)
(-1.110223025e-16 -5.551115123e-17 0)
(-1.110223025e-16 0 0)
(-1.110223025e-16 0 0)
(0 5.551115123e-17 0)
(-1.110223025e-16 0 0)
(-1.110223025e-16 0 0)
(-1.110223025e-16 0 0)
(-1.110223025e-16 0 0)
(-1.110223025e-16 1.110223025e-16 0)
(0 0 0)
(-1.110223025e-16 0 0)
(-1.110223025e-16 5.551115123e-17 0)
(-1.110223025e-16 -5.551115123e-17 0)
(1.110223025e-16 2.775557562e-17 0)
(2.220446049e-16 0 0)
(2.220446049e-16 2.775557562e-17 0)
(2.220446049e-16 2.775557562e-17 0)
(2.220446049e-16 0 0)
(2.220446049e-16 0 0)
(2.220446049e-16 0 0)
(2.220446049e-16 -5.551115123e-17 0)
(0 0 0)
(2.220446049e-16 0 0)
(2.220446049e-16 -5.551115123e-17 0)
(2.220446049e-16 0 0)
(2.220446049e-16 0 0)
(2.220446049e-16 0 0)
(0 0 0)
(2.220446049e-16 5.551115123e-17 0)
(2.220446049e-16 0 0)
(2.220446049e-16 0 0)
(2.220446049e-16 -5.551115123e-17 0)
(2.220446049e-16 0 0)
(0 0 0)
(2.220446049e-16 0 0)
(2.220446049e-16 0 0)
(2.220446049e-16 -1.110223025e-16 0)
(2.220446049e-16 0 0)
(2.220446049e-16 1.110223025e-16 0)
(0 0 0)
(2.220446049e-16 0 0)
(2.220446049e-16 5.551115123e-17 0)
(2.220446049e-16 0 0)
(0 0 0)
(0 0 0)
(0 0 0)
(1.110223025e-16 0 0)
(0 0 0)
(0 0 0)
(0 5.551115123e-17 0)
(0 1.110223025e-16 0)
(0 0 0)
(0 0 0)
(0 5.551115123e-17 0)
(0 0 0)
(0 5.551115123e-17 0)
(0 5.551115123e-17 0)
(0 5.551115123e-17 0)
(0 0 0)
(0 0 0)
(0 0 0)
(0 0 0)
(0 0 0)
(0 0 0)
(0 -5.551115123e-17 0)
(0 0 0)
(0 -5.551115123e-17 0)
(0 -5.551115123e-17 0)
(0 0 0)
(1.110223025e-16 5.551115123e-17 0)
(0 0 0)
(0 -1.110223025e-16 0)
(0 0 0)
(-1.110223025e-16 0 0)
(0 0 0)
(0 2.775557562e-17 0)
(1.110223025e-16 2.775557562e-17 0)
(0 8.326672685e-17 0)
(0 0 0)
(0 5.551115123e-17 0)
(0 0 0)
(1.110223025e-16 5.551115123e-17 0)
(0 0 0)
(0 0 0)
(0 0 0)
(0 0 0)
(0 0 0)
(1.110223025e-16 5.551115123e-17 0)
(0 5.551115123e-17 0)
(0 0 0)
(0 0 0)
(0 -5.551115123e-17 0)
(0 0 0)
(1.110223025e-16 5.551115123e-17 0)
(0 0 0)
(0 0 0)
(0 -1.110223025e-16 0)
(0 0 0)
(0 1.110223025e-16 0)
(0 0 0)
(0 0 0)
(0 5.551115123e-17 0)
(0 -5.551115123e-17 0)
(2.220446049e-16 2.775557562e-17 0)
(0 0 0)
(0 0 0)
(1.110223025e-16 0 0)
(0 0 0)
(0 0 0)
(0 5.551115123e-17 0)
(0 0 0)
(2.220446049e-16 0 0)
(0 0 0)
(0 -5.551115123e-17 0)
(0 5.551115123e-17 0)
(0 5.551115123e-17 0)
(0 0 0)
(2.220446049e-16 0 0)
(0 0 0)
(0 1.110223025e-16 0)
(0 1.110223025e-16 0)
(0 0 0)
(0 -5.551115123e-17 0)
(2.220446049e-16 0 0)
(0 0 0)
(0 0 0)
(0 0 0)
(0 0 0)
(0 1.110223025e-16 0)
(3.330669074e-16 1.110223025e-16 0)
(0 0 0)
(0 0 0)
(0 1.665334537e-16 0)
(0 0 0)
(0 0 0)
(0 0 0)
(1.110223025e-16 0 0)
(0 2.775557562e-17 0)
(0 -1.110223025e-16 0)
(0 0 0)
(0 1.110223025e-16 0)
(-2.220446049e-16 0 0)
(0 -5.551115123e-17 0)
(0 5.551115123e-17 0)
(0 0 0)
(0 0 0)
(0 5.551115123e-17 0)
(-2.220446049e-16 5.551115123e-17 0)
(0 0 0)
(0 0 0)
(0 0 0)
(0 0 0)
(0 0 0)
(-2.220446049e-16 0 0)
(0 -5.551115123e-17 0)
(0 0 0)
(0 -5.551115123e-17 0)
(0 -5.551115123e-17 0)
(0 0 0)
(-1.110223025e-16 5.551115123e-17 0)
(0 0 0)
(0 0 0)
(0 0 0)
(0 2.775557562e-17 0)
(0 0 0)
(0 2.775557562e-17 0)
(0 2.775557562e-17 0)
(0 0 0)
(0 0 0)
(0 0 0)
(0 -5.551115123e-17 0)
(1.110223025e-16 0 0)
(0 0 0)
(0 -5.551115123e-17 0)
(0 0 0)
(0 0 0)
(0 0 0)
(0 0 0)
(0 5.551115123e-17 0)
(0 0 0)
(0 0 0)
(0 -5.551115123e-17 0)
(0 0 0)
(0 0 0)
(0 0 0)
(0 0 0)
(0 -1.110223025e-16 0)
(0 0 0)
(0 1.110223025e-16 0)
(1.110223025e-16 0 0)
(0 0 0)
(0 5.551115123e-17 0)
(0 0 0)
(-1.110223025e-16 -5.551115123e-17 0)
(0 0 0)
(0 0 0)
(0 0 0)
(0 0 0)
(0 0 0)
(0 5.551115123e-17 0)
(0 5.551115123e-17 0)
(2.220446049e-16 5.551115123e-17 0)
(0 0 0)
(0 5.551115123e-17 0)
(0 0 0)
(0 0 0)
(0 0 0)
(1.110223025e-16 0 0)
(0 0 0)
(0 0 0)
(0 -5.551115123e-17 0)
(0 0 0)
(0 0 0)
(1.110223025e-16 5.551115123e-17 0)
(0 0 0)
(0 0 0)
(0 0 0)
(0 0 0)
(0 1.110223025e-16 0)
(1.110223025e-16 0 0)
(0 0 0)
(0 5.551115123e-17 0)
(0 -5.551115123e-17 0)
(-1.110223025e-16 -2.775557562e-17 0)
(-2.220446049e-16 -5.551115123e-17 0)
(-2.220446049e-16 0 0)
(0 -2.775557562e-17 0)
(-2.220446049e-16 0 0)
(-2.220446049e-16 1.110223025e-16 0)
(-2.220446049e-16 0 0)
(-2.220446049e-16 0 0)
(-1.110223025e-16 5.551115123e-17 0)
(-2.220446049e-16 0 0)
(-2.220446049e-16 0 0)
(-2.220446049e-16 -5.551115123e-17 0)
(-2.220446049e-16 5.551115123e-17 0)
(-2.220446049e-16 5.551115123e-17 0)
(-1.110223025e-16 0 0)
(-2.220446049e-16 0 0)
(-2.220446049e-16 0 0)
(-2.220446049e-16 0 0)
(-2.220446049e-16 1.110223025e-16 0)
(-2.220446049e-16 0 0)
(-1.110223025e-16 -5.551115123e-17 0)
(-2.220446049e-16 0 0)
(-2.220446049e-16 5.551115123e-17 0)
(-2.220446049e-16 0 0)
(-2.220446049e-16 0 0)
(-2.220446049e-16 0 0)
(1.110223025e-16 5.551115123e-17 0)
(-2.220446049e-16 0 0)
(-2.220446049e-16 0 0)
(-2.220446049e-16 0 0)
(-1.110223025e-16 -5.551115123e-17 0)
(0 0 0)
(0 0 0)
(-1.110223025e-16 0 0)
(0 0 0)
(0 0 0)
(0 5.551115123e-17 0)
(0 5.551115123e-17 0)
(1.110223025e-16 5.551115123e-17 0)
(0 0 0)
(0 5.551115123e-17 0)
(0 0 0)
(0 0 0)
(0 0 0)
(1.110223025e-16 0 0)
(0 0 0)
(0 0 0)
(0 -5.551115123e-17 0)
(0 0 0)
(0 0 0)
(1.110223025e-16 5.551115123e-17 0)
(0 0 0)
(0 0 0)
(0 0 0)
(0 0 0)
(0 1.110223025e-16 0)
(0 0 0)
(0 0 0)
(0 5.551115123e-17 0)
(0 -5.551115123e-17 0)
)
;
    }
    region0_to_wallFilmRegion_mirrorFace
    {
        type            mappedWall;
        inGroups        List<word> 
2
(
wall
mappedPatch
)
;
        nFaces          133;
        startFace       202553;
        sampleMode      nearestPatchFace;
        sampleRegion    wallFilmRegion;
        samplePatch     region0_to_wallFilmRegion_mirrorFace;
        offsetMode      nonuniform;
        offsets         nonuniform List<vector> 
133
(
(-1.110223025e-16 -1.110223025e-16 -5.551115123e-17)
(-1.110223025e-16 -1.110223025e-16 -5.551115123e-17)
(0 0 0)
(0 0 0)
(0 -1.110223025e-16 0)
(0 1.110223025e-16 5.551115123e-17)
(0 -1.110223025e-16 5.551115123e-17)
(0 0 1.665334537e-16)
(-1.110223025e-16 -1.110223025e-16 -5.551115123e-17)
(0 0 -5.551115123e-17)
(-1.110223025e-16 -5.551115123e-17 5.551115123e-17)
(-1.110223025e-16 -1.110223025e-16 -5.551115123e-17)
(0 0 -5.551115123e-17)
(0 0 -5.551115123e-17)
(-1.110223025e-16 -1.110223025e-16 0)
(-1.110223025e-16 -1.665334537e-16 0)
(1.110223025e-16 0 0)
(1.110223025e-16 5.551115123e-17 5.551115123e-17)
(-2.220446049e-16 0 0)
(-1.110223025e-16 0 -5.551115123e-17)
(0 0 0)
(0 0 -1.110223025e-16)
(1.110223025e-16 1.110223025e-16 0)
(0 -1.665334537e-16 1.110223025e-16)
(0 -5.551115123e-17 5.551115123e-17)
(0 1.665334537e-16 0)
(2.220446049e-16 1.110223025e-16 0)
(-1.110223025e-16 0 0)
(-1.110223025e-16 0 0)
(0 1.110223025e-16 5.551115123e-17)
(0 0 0)
(1.110223025e-16 0 1.110223025e-16)
(1.110223025e-16 1.110223025e-16 1.665334537e-16)
(1.110223025e-16 5.551115123e-17 5.551115123e-17)
(0 -1.110223025e-16 0)
(1.110223025e-16 0 0)
(-1.110223025e-16 -1.110223025e-16 -5.551115123e-17)
(0 0 0)
(1.110223025e-16 0 5.551115123e-17)
(0 -5.551115123e-17 0)
(0 0 5.551115123e-17)
(1.110223025e-16 1.110223025e-16 1.110223025e-16)
(0 0 1.110223025e-16)
(0 5.551115123e-17 0)
(0 -1.110223025e-16 1.110223025e-16)
(1.110223025e-16 -1.110223025e-16 -5.551115123e-17)
(0 0 0)
(0 0 -1.110223025e-16)
(0 -5.551115123e-17 -5.551115123e-17)
(1.110223025e-16 -1.110223025e-16 5.551115123e-17)
(0 -1.110223025e-16 1.110223025e-16)
(1.110223025e-16 0 0)
(0 0 0)
(0 0 -5.551115123e-17)
(1.110223025e-16 1.665334537e-16 5.551115123e-17)
(0 1.110223025e-16 0)
(0 0 5.551115123e-17)
(0 -1.665334537e-16 0)
(-1.110223025e-16 -5.551115123e-17 -5.551115123e-17)
(-1.110223025e-16 0 0)
(0 1.665334537e-16 0)
(0 0 5.551115123e-17)
(0 -1.665334537e-16 5.551115123e-17)
(0 0 0)
(0 -5.551115123e-17 -5.551115123e-17)
(0 5.551115123e-17 5.551115123e-17)
(-2.220446049e-16 -1.110223025e-16 -5.551115123e-17)
(0 -5.551115123e-17 -5.551115123e-17)
(-1.110223025e-16 -1.665334537e-16 -5.551115123e-17)
(1.110223025e-16 1.110223025e-16 5.551115123e-17)
(0 5.551115123e-17 1.110223025e-16)
(0 0 1.110223025e-16)
(0 0 0)
(1.110223025e-16 0 5.551115123e-17)
(1.110223025e-16 5.551115123e-17 1.665334537e-16)
(2.220446049e-16 1.110223025e-16 5.551115123e-17)
(0 -1.110223025e-16 -5.551115123e-17)
(1.110223025e-16 0 -5.551115123e-17)
(0 1.110223025e-16 5.551115123e-17)
(0 0 0)
(1.110223025e-16 5.551115123e-17 5.551115123e-17)
(0 0 -5.551115123e-17)
(-1.110223025e-16 -5.551115123e-17 -5.551115123e-17)
(2.220446049e-16 -5.551115123e-17 -5.551115123e-17)
(0 0 -5.551115123e-17)
(1.110223025e-16 0 5.551115123e-17)
(0 0 -5.551115123e-17)
(0 0 -5.551115123e-17)
(0 0 0)
(1.110223025e-16 1.110223025e-16 -5.551115123e-17)
(1.110223025e-16 0 0)
(-1.110223025e-16 0 0)
(0 0 0)
(1.110223025e-16 1.110223025e-16 5.551115123e-17)
(-1.110223025e-16 0 5.551115123e-17)
(2.220446049e-16 5.551115123e-17 5.551115123e-17)
(1.110223025e-16 0 5.551115123e-17)
(0 0 -5.551115123e-17)
(2.220446049e-16 1.110223025e-16 5.551115123e-17)
(-1.110223025e-16 1.110223025e-16 0)
(1.110223025e-16 0 0)
(0 -5.551115123e-17 -1.110223025e-16)
(0 5.551115123e-17 1.110223025e-16)
(0 0 0)
(-1.110223025e-16 -1.665334537e-16 0)
(0 0 0)
(0 -1.110223025e-16 0)
(-1.110223025e-16 -1.110223025e-16 -1.110223025e-16)
(-1.110223025e-16 0 -5.551115123e-17)
(1.110223025e-16 1.110223025e-16 5.551115123e-17)
(0 -1.110223025e-16 0)
(-1.110223025e-16 -5.551115123e-17 -5.551115123e-17)
(5.551115123e-17 1.110223025e-16 1.110223025e-16)
(0 1.110223025e-16 1.110223025e-16)
(-1.110223025e-16 -5.551115123e-17 -5.551115123e-17)
(-1.110223025e-16 -2.220446049e-16 -1.110223025e-16)
(0 0 0)
(0 5.551115123e-17 5.551115123e-17)
(-1.110223025e-16 5.551115123e-17 0)
(0 5.551115123e-17 -5.551115123e-17)
(0 -5.551115123e-17 -1.110223025e-16)
(1.110223025e-16 0 0)
(0 0 0)
(0 0 0)
(0 5.551115123e-17 5.551115123e-17)
(0 1.665334537e-16 5.551115123e-17)
(0 0 0)
(1.110223025e-16 1.110223025e-16 -5.551115123e-17)
(0 -5.551115123e-17 0)
(0 1.110223025e-16 0)
(1.110223025e-16 5.551115123e-17 1.110223025e-16)
(0 0 0)
(0 0 -1.110223025e-16)
)
;
    }
    procBoundary3to0
    {
        type            processor;
        inGroups        List<word> 1(processor);
        nFaces          85;
        startFace       202686;
        matchTolerance  0.0001;
        myProcNo        3;
        neighbProcNo    0;
    }
    procBoundary3to1
    {
        type            processor;
        inGroups        List<word> 1(processor);
        nFaces          2472;
        startFace       202771;
        matchTolerance  0.0001;
        myProcNo        3;
        neighbProcNo    1;
    }
    procBoundary3to2
    {
        type            processor;
        inGroups        List<word> 1(processor);
        nFaces          2690;
        startFace       205243;
        matchTolerance  0.0001;
        myProcNo        3;
        neighbProcNo    2;
    }
)

// ************************************************************************* //
