/*--------------------------------*- C++ -*----------------------------------*\
  =========                 |
  \\      /  F ield         | OpenFOAM: The Open Source CFD Toolbox
   \\    /   O peration     | Website:  https://openfoam.org
    \\  /    A nd           | Version:  8
     \\/     M anipulation  |
\*---------------------------------------------------------------------------*/
FoamFile
{
    version     2.0;
    format      ascii;
    class       polyBoundaryMesh;
    location    "constant/polyMesh";
    object      boundary;
}
// * * * * * * * * * * * * * * * * * * * * * * * * * * * * * * * * * * * * * //

3
(
    walls
    {
        type            wall;
        inGroups        List<word> 1(wall);
        nFaces          18000;
        startFace       799963;
    }
    region0_to_wallFilmRegion_wallFilmFace
    {
        type            mappedWall;
        inGroups        List<word> 1(wall);
        nFaces          3600;
        startFace       817963;
        sampleMode      nearestPatchFace;
        sampleRegion    wallFilmRegion;
        samplePatch     region0_to_wallFilmRegion_wallFilmFace;
        offsetMode      nonuniform;
        offsets         nonuniform List<vector> 
3600
(
(-0 -0 -0)
(-0 -0 -0)
(-0 -0 -0)
(-0 -2.775557562e-17 -0)
(-0 -0 -0)
(-0 -0 -0)
(-0 -0 -0)
(-0 -0 -0)
(-0 -0 -0)
(-0 -0 -0)
(-0 -0 -0)
(-0 -0 -0)
(-0 -0 -0)
(-0 -0 -0)
(-0 -0 -0)
(-0 -0 -0)
(-0 -0 -0)
(-0 -5.551115123e-17 -0)
(-0 -0 -0)
(-0 -0 -0)
(-0 -0 -0)
(-0 -0 -0)
(-0 -0 -0)
(-0 -0 -0)
(-0 -0 -0)
(-0 1.110223025e-16 -0)
(-0 -0 -0)
(-0 5.551115123e-17 -0)
(-0 5.551115123e-17 -0)
(-0 -0 -0)
(-0 -0 -0)
(-0 -2.220446049e-16 -0)
(-0 -0 -0)
(-0 -0 -0)
(-0 -0 -0)
(-0 -0 -0)
(-2.775557562e-17 -0 -0)
(-0 1.110223025e-16 -0)
(-0 -0 -0)
(-0 -0 -0)
(-0 -1.110223025e-16 -0)
(-0 -0 -0)
(-0 1.110223025e-16 -0)
(-0 -0 -0)
(-0 -0 -0)
(-0 -0 -0)
(-0 -0 -0)
(-0 -0 -0)
(-0 2.220446049e-16 -0)
(-0 -0 -0)
(-0 -0 -0)
(-0 -1.110223025e-16 -0)
(-0 -0 -0)
(-0 -0 -0)
(-0 -1.110223025e-16 -0)
(-0 -2.220446049e-16 -0)
(-0 -0 -0)
(-0 -1.110223025e-16 -0)
(-0 -0 -0)
(-0 -2.220446049e-16 -0)
(2.775557562e-17 2.775557562e-17 -0)
(-5.551115123e-17 -0 -0)
(-5.551115123e-17 -5.551115123e-17 -0)
(-2.775557562e-17 -2.775557562e-17 -0)
(-5.551115123e-17 -0 -0)
(-5.551115123e-17 -1.110223025e-16 -0)
(-5.551115123e-17 -5.551115123e-17 -0)
(-5.551115123e-17 -0 -0)
(-2.775557562e-17 -0 -0)
(-5.551115123e-17 -5.551115123e-17 -0)
(-5.551115123e-17 -0 -0)
(-5.551115123e-17 -0 -0)
(-5.551115123e-17 -0 -0)
(-5.551115123e-17 -5.551115123e-17 -0)
(-2.775557562e-17 5.551115123e-17 -0)
(-5.551115123e-17 -0 -0)
(-5.551115123e-17 -0 -0)
(-5.551115123e-17 -0 -0)
(-5.551115123e-17 -0 -0)
(-5.551115123e-17 -0 -0)
(-2.775557562e-17 -5.551115123e-17 -0)
(-5.551115123e-17 -0 -0)
(-5.551115123e-17 -0 -0)
(-5.551115123e-17 -0 -0)
(-5.551115123e-17 -0 -0)
(-5.551115123e-17 -0 -0)
(-0 5.551115123e-17 -0)
(-5.551115123e-17 -0 -0)
(-5.551115123e-17 -0 -0)
(-5.551115123e-17 -0 -0)
(-5.551115123e-17 -1.110223025e-16 -0)
(-5.551115123e-17 -0 -0)
(-5.551115123e-17 -0 -0)
(-5.551115123e-17 -0 -0)
(-5.551115123e-17 -0 -0)
(-5.551115123e-17 -0 -0)
(-0 -1.110223025e-16 -0)
(-5.551115123e-17 -0 -0)
(-5.551115123e-17 -0 -0)
(-5.551115123e-17 -0 -0)
(-5.551115123e-17 -0 -0)
(-5.551115123e-17 -0 -0)
(-5.551115123e-17 -0 -0)
(-5.551115123e-17 -0 -0)
(-5.551115123e-17 1.110223025e-16 -0)
(-5.551115123e-17 -0 -0)
(-5.551115123e-17 -0 -0)
(-5.551115123e-17 1.110223025e-16 -0)
(2.775557562e-17 1.110223025e-16 -0)
(-5.551115123e-17 1.110223025e-16 -0)
(-0 -0 -0)
(-5.551115123e-17 -0 -0)
(-5.551115123e-17 -0 -0)
(-5.551115123e-17 1.110223025e-16 -0)
(-0 -0 -0)
(-5.551115123e-17 -0 -0)
(-5.551115123e-17 -0 -0)
(-5.551115123e-17 -0 -0)
(-0 -0 -0)
(-5.551115123e-17 -0 -0)
(-8.326672685e-17 -0 -0)
(-5.551115123e-17 -2.775557562e-17 -0)
(-5.551115123e-17 -2.775557562e-17 -0)
(2.775557562e-17 2.775557562e-17 -0)
(-5.551115123e-17 -5.551115123e-17 -0)
(-5.551115123e-17 -5.551115123e-17 -0)
(-5.551115123e-17 -5.551115123e-17 -0)
(-5.551115123e-17 -5.551115123e-17 -0)
(8.326672685e-17 -0 -0)
(-5.551115123e-17 -5.551115123e-17 -0)
(-5.551115123e-17 -5.551115123e-17 -0)
(-5.551115123e-17 -5.551115123e-17 -0)
(-5.551115123e-17 -5.551115123e-17 -0)
(-5.551115123e-17 5.551115123e-17 -0)
(8.326672685e-17 5.551115123e-17 -0)
(-5.551115123e-17 -5.551115123e-17 -0)
(-5.551115123e-17 -5.551115123e-17 -0)
(-5.551115123e-17 -5.551115123e-17 -0)
(-5.551115123e-17 -5.551115123e-17 -0)
(-5.551115123e-17 -5.551115123e-17 -0)
(8.326672685e-17 -0 -0)
(-5.551115123e-17 -1.110223025e-16 -0)
(-5.551115123e-17 -5.551115123e-17 -0)
(-5.551115123e-17 -5.551115123e-17 -0)
(-5.551115123e-17 -0 -0)
(-5.551115123e-17 -5.551115123e-17 -0)
(8.326672685e-17 -0 -0)
(-5.551115123e-17 -5.551115123e-17 -0)
(-5.551115123e-17 -5.551115123e-17 -0)
(-5.551115123e-17 -0 -0)
(-5.551115123e-17 -1.110223025e-16 -0)
(-5.551115123e-17 -1.110223025e-16 -0)
(-5.551115123e-17 -0 -0)
(-5.551115123e-17 -1.110223025e-16 -0)
(-5.551115123e-17 -1.110223025e-16 -0)
(-5.551115123e-17 -0 -0)
(2.775557562e-17 1.110223025e-16 -0)
(-5.551115123e-17 -0 -0)
(-5.551115123e-17 -3.330669074e-16 -0)
(-5.551115123e-17 -1.110223025e-16 -0)
(-5.551115123e-17 -2.220446049e-16 -0)
(-5.551115123e-17 -2.220446049e-16 -0)
(-5.551115123e-17 -1.110223025e-16 -0)
(-5.551115123e-17 -1.110223025e-16 -0)
(-5.551115123e-17 -0 -0)
(-5.551115123e-17 -2.220446049e-16 -0)
(-5.551115123e-17 -0 -0)
(-5.551115123e-17 -0 -0)
(-0 -0 -0)
(-5.551115123e-17 -1.110223025e-16 -0)
(-5.551115123e-17 2.220446049e-16 -0)
(-5.551115123e-17 -2.220446049e-16 -0)
(-5.551115123e-17 -0 -0)
(-5.551115123e-17 -1.110223025e-16 -0)
(-5.551115123e-17 -1.110223025e-16 -0)
(-5.551115123e-17 -2.220446049e-16 -0)
(-5.551115123e-17 -1.110223025e-16 -0)
(-5.551115123e-17 -2.220446049e-16 -0)
(-5.551115123e-17 -0 -0)
(-5.551115123e-17 -3.330669074e-16 -0)
(-0 -0 -0)
(-0 -0 -0)
(-0 -0 -0)
(-8.326672685e-17 -2.775557562e-17 -0)
(-0 -0 -0)
(-0 -0 -0)
(-0 -0 -0)
(-0 -0 -0)
(-0 -0 -0)
(-0 -0 -0)
(-0 -0 -0)
(-0 -0 -0)
(-0 -0 -0)
(-0 -0 -0)
(-0 -0 -0)
(-0 -0 -0)
(-0 -0 -0)
(-0 -5.551115123e-17 -0)
(-0 -0 -0)
(-0 -0 -0)
(-0 -0 -0)
(-0 -0 -0)
(-0 -0 -0)
(-0 -0 -0)
(-0 -0 -0)
(-0 1.110223025e-16 -0)
(-0 -0 -0)
(-0 5.551115123e-17 -0)
(-0 5.551115123e-17 -0)
(-0 -0 -0)
(-0 -0 -0)
(-0 -2.220446049e-16 -0)
(-0 -0 -0)
(-0 -0 -0)
(-0 -0 -0)
(-0 -0 -0)
(2.775557562e-17 -0 -0)
(-0 1.110223025e-16 -0)
(-0 -0 -0)
(-0 -0 -0)
(-0 -1.110223025e-16 -0)
(-0 -0 -0)
(-0 1.110223025e-16 -0)
(-0 -0 -0)
(-0 -0 -0)
(-0 -0 -0)
(-0 -0 -0)
(-0 -0 -0)
(-0 2.220446049e-16 -0)
(-2.775557562e-17 -0 -0)
(-0 -0 -0)
(-0 -1.110223025e-16 -0)
(-0 -0 -0)
(-2.775557562e-17 -0 -0)
(-0 -1.110223025e-16 -0)
(-0 -2.220446049e-16 -0)
(-0 -0 -0)
(-2.775557562e-17 -1.110223025e-16 -0)
(-0 -0 -0)
(-0 -2.220446049e-16 -0)
(2.775557562e-17 5.551115123e-17 -0)
(-0 -0 -0)
(-0 -0 -0)
(-0 -0 -0)
(-0 5.551115123e-17 -0)
(-0 5.551115123e-17 -0)
(-0 -5.551115123e-17 -0)
(-0 -0 -0)
(-0 -0 -0)
(-0 -0 -0)
(-0 -0 -0)
(-0 -0 -0)
(-0 -5.551115123e-17 -0)
(-0 -1.110223025e-16 -0)
(-0 5.551115123e-17 -0)
(-0 -0 -0)
(-0 -0 -0)
(-0 -0 -0)
(-0 -5.551115123e-17 -0)
(-0 -0 -0)
(-0 -0 -0)
(-0 -0 -0)
(-0 -0 -0)
(-0 -5.551115123e-17 -0)
(-0 -0 -0)
(-0 -0 -0)
(5.551115123e-17 1.110223025e-16 -0)
(-0 -0 -0)
(-0 -0 -0)
(-0 5.551115123e-17 -0)
(-0 -0 -0)
(-0 -0 -0)
(-0 -0 -0)
(-0 -0 -0)
(-0 -0 -0)
(-0 -0 -0)
(-0 -1.110223025e-16 -0)
(-0 1.110223025e-16 -0)
(-0 -0 -0)
(-0 -0 -0)
(-0 -1.110223025e-16 -0)
(-0 -0 -0)
(-0 -0 -0)
(-0 -0 -0)
(-0 -0 -0)
(-0 -2.220446049e-16 -0)
(-0 -0 -0)
(-0 2.220446049e-16 -0)
(2.775557562e-17 1.110223025e-16 -0)
(-0 -0 -0)
(2.775557562e-17 -0 -0)
(-0 -1.110223025e-16 -0)
(8.326672685e-17 -0 -0)
(-0 -0 -0)
(2.775557562e-17 -1.110223025e-16 -0)
(-0 -0 -0)
(8.326672685e-17 -1.110223025e-16 -0)
(-0 -1.110223025e-16 -0)
(2.775557562e-17 -0 -0)
(-0 -0 -0)
(-0 -0 -0)
(-0 -0 -0)
(-0 -0 -0)
(-0 -2.775557562e-17 -0)
(-0 -0 -0)
(-0 -0 -0)
(-0 -0 -0)
(-0 -0 -0)
(-0 -0 -0)
(-0 -0 -0)
(-0 -0 -0)
(-0 -0 -0)
(-0 -0 -0)
(-0 -0 -0)
(-0 -0 -0)
(-0 -0 -0)
(-0 -0 -0)
(-0 -5.551115123e-17 -0)
(-0 -0 -0)
(-0 -0 -0)
(-0 -0 -0)
(-0 -0 -0)
(-0 -0 -0)
(-0 -0 -0)
(-0 -0 -0)
(-0 1.110223025e-16 -0)
(-0 -0 -0)
(-0 5.551115123e-17 -0)
(-0 5.551115123e-17 -0)
(-0 -0 -0)
(-0 -0 -0)
(-0 -2.220446049e-16 -0)
(-0 -0 -0)
(-0 -0 -0)
(-0 -0 -0)
(-0 -0 -0)
(-5.551115123e-17 -0 -0)
(-0 1.110223025e-16 -0)
(-0 -0 -0)
(-0 -0 -0)
(-0 -1.110223025e-16 -0)
(-0 -0 -0)
(-0 1.110223025e-16 -0)
(-0 -0 -0)
(-0 -0 -0)
(-0 -0 -0)
(-0 -0 -0)
(-0 -0 -0)
(-0 2.220446049e-16 -0)
(-0 -0 -0)
(-0 -0 -0)
(-0 -1.110223025e-16 -0)
(-0 -0 -0)
(-0 -0 -0)
(-0 -1.110223025e-16 -0)
(-0 -2.220446049e-16 -0)
(-0 -0 -0)
(-0 -1.110223025e-16 -0)
(-0 -0 -0)
(-0 -2.220446049e-16 -0)
(-5.551115123e-17 -0 -0)
(-0 -0 -0)
(-0 -0 -0)
(-0 -2.775557562e-17 -0)
(-0 -0 -0)
(-0 -0 -0)
(-0 -0 -0)
(-0 -0 -0)
(-0 -0 -0)
(-0 -0 -0)
(-0 -0 -0)
(-0 -0 -0)
(-0 -0 -0)
(-0 -0 -0)
(-0 -0 -0)
(-0 -0 -0)
(-0 -0 -0)
(-0 -5.551115123e-17 -0)
(-0 -0 -0)
(-0 -0 -0)
(-0 -0 -0)
(-0 -0 -0)
(-0 -0 -0)
(-0 -0 -0)
(-0 -0 -0)
(-0 1.110223025e-16 -0)
(-0 -0 -0)
(-0 5.551115123e-17 -0)
(-0 5.551115123e-17 -0)
(-0 -0 -0)
(-0 -0 -0)
(-0 -2.220446049e-16 -0)
(-0 -0 -0)
(-0 -0 -0)
(-0 -0 -0)
(-0 -0 -0)
(-5.551115123e-17 -0 -0)
(-0 1.110223025e-16 -0)
(-0 -0 -0)
(-0 -0 -0)
(-0 -1.110223025e-16 -0)
(-0 -0 -0)
(-0 1.110223025e-16 -0)
(-0 -0 -0)
(-0 -0 -0)
(-0 -0 -0)
(-0 -0 -0)
(-0 -0 -0)
(-0 2.220446049e-16 -0)
(-5.551115123e-17 -0 -0)
(5.551115123e-17 -0 -0)
(-0 -1.110223025e-16 -0)
(-0 -0 -0)
(-5.551115123e-17 -0 -0)
(5.551115123e-17 -1.110223025e-16 -0)
(-0 -2.220446049e-16 -0)
(-0 -0 -0)
(-5.551115123e-17 -1.110223025e-16 -0)
(5.551115123e-17 -0 -0)
(-0 -2.220446049e-16 -0)
(5.551115123e-17 2.775557562e-17 -0)
(5.551115123e-17 -0 -0)
(5.551115123e-17 -5.551115123e-17 -0)
(-0 -2.775557562e-17 -0)
(5.551115123e-17 -0 -0)
(5.551115123e-17 -1.110223025e-16 -0)
(5.551115123e-17 -5.551115123e-17 -0)
(5.551115123e-17 -0 -0)
(-0 -0 -0)
(5.551115123e-17 -5.551115123e-17 -0)
(5.551115123e-17 -0 -0)
(5.551115123e-17 -0 -0)
(5.551115123e-17 -0 -0)
(5.551115123e-17 -5.551115123e-17 -0)
(-0 5.551115123e-17 -0)
(5.551115123e-17 -0 -0)
(5.551115123e-17 -0 -0)
(5.551115123e-17 -0 -0)
(5.551115123e-17 -0 -0)
(5.551115123e-17 -0 -0)
(-0 -5.551115123e-17 -0)
(5.551115123e-17 -0 -0)
(5.551115123e-17 -0 -0)
(5.551115123e-17 -0 -0)
(5.551115123e-17 -0 -0)
(5.551115123e-17 -0 -0)
(5.551115123e-17 5.551115123e-17 -0)
(5.551115123e-17 -0 -0)
(5.551115123e-17 -0 -0)
(5.551115123e-17 -0 -0)
(5.551115123e-17 -1.110223025e-16 -0)
(5.551115123e-17 -0 -0)
(5.551115123e-17 -0 -0)
(5.551115123e-17 -0 -0)
(5.551115123e-17 -0 -0)
(5.551115123e-17 -0 -0)
(-0 -1.110223025e-16 -0)
(5.551115123e-17 -0 -0)
(5.551115123e-17 -0 -0)
(5.551115123e-17 -0 -0)
(5.551115123e-17 -0 -0)
(5.551115123e-17 -0 -0)
(5.551115123e-17 -0 -0)
(5.551115123e-17 -0 -0)
(5.551115123e-17 1.110223025e-16 -0)
(5.551115123e-17 -0 -0)
(5.551115123e-17 -0 -0)
(5.551115123e-17 1.110223025e-16 -0)
(5.551115123e-17 1.110223025e-16 -0)
(5.551115123e-17 1.110223025e-16 -0)
(-0 -0 -0)
(5.551115123e-17 -0 -0)
(5.551115123e-17 -0 -0)
(5.551115123e-17 1.110223025e-16 -0)
(-0 -0 -0)
(5.551115123e-17 -0 -0)
(5.551115123e-17 -0 -0)
(5.551115123e-17 -0 -0)
(-0 -0 -0)
(5.551115123e-17 -0 -0)
(5.551115123e-17 -0 -0)
(-5.551115123e-17 -0 -0)
(-5.551115123e-17 -0 -0)
(5.551115123e-17 -2.775557562e-17 -0)
(-5.551115123e-17 -0 -0)
(-5.551115123e-17 -0 -0)
(-5.551115123e-17 -0 -0)
(-5.551115123e-17 -0 -0)
(-0 -0 -0)
(-5.551115123e-17 -0 -0)
(-5.551115123e-17 -0 -0)
(-5.551115123e-17 -0 -0)
(-5.551115123e-17 -0 -0)
(-5.551115123e-17 -0 -0)
(-0 -0 -0)
(-5.551115123e-17 -0 -0)
(-5.551115123e-17 -0 -0)
(-5.551115123e-17 -5.551115123e-17 -0)
(-5.551115123e-17 -0 -0)
(-5.551115123e-17 -0 -0)
(-0 -0 -0)
(-5.551115123e-17 -0 -0)
(-5.551115123e-17 -0 -0)
(-5.551115123e-17 -0 -0)
(-5.551115123e-17 -0 -0)
(-5.551115123e-17 1.110223025e-16 -0)
(-0 -0 -0)
(-5.551115123e-17 5.551115123e-17 -0)
(-5.551115123e-17 5.551115123e-17 -0)
(-5.551115123e-17 -0 -0)
(-5.551115123e-17 -0 -0)
(-5.551115123e-17 -2.220446049e-16 -0)
(-5.551115123e-17 -0 -0)
(-5.551115123e-17 -0 -0)
(-5.551115123e-17 -0 -0)
(-5.551115123e-17 -0 -0)
(-0 -0 -0)
(-5.551115123e-17 1.110223025e-16 -0)
(-5.551115123e-17 -0 -0)
(-5.551115123e-17 -0 -0)
(-5.551115123e-17 -1.110223025e-16 -0)
(-5.551115123e-17 -0 -0)
(-5.551115123e-17 1.110223025e-16 -0)
(-5.551115123e-17 -0 -0)
(-5.551115123e-17 -0 -0)
(-5.551115123e-17 -0 -0)
(-5.551115123e-17 -0 -0)
(-5.551115123e-17 -0 -0)
(-0 2.220446049e-16 -0)
(-0 -0 -0)
(-5.551115123e-17 -0 -0)
(-5.551115123e-17 -1.110223025e-16 -0)
(-0 -0 -0)
(-0 -0 -0)
(-5.551115123e-17 -1.110223025e-16 -0)
(-5.551115123e-17 -2.220446049e-16 -0)
(-0 -0 -0)
(-0 -1.110223025e-16 -0)
(-5.551115123e-17 -0 -0)
(-5.551115123e-17 -2.220446049e-16 -0)
(-5.551115123e-17 2.775557562e-17 -0)
(-0 8.326672685e-17 -0)
(-0 2.775557562e-17 -0)
(-5.551115123e-17 -0 -0)
(-0 1.110223025e-16 -0)
(-0 -0 -0)
(-0 -0 -0)
(-0 -0 -0)
(-0 -5.551115123e-17 -0)
(-0 5.551115123e-17 -0)
(-0 5.551115123e-17 -0)
(-0 1.665334537e-16 -0)
(-0 1.110223025e-16 -0)
(-0 5.551115123e-17 -0)
(-0 -0 -0)
(-0 5.551115123e-17 -0)
(-0 5.551115123e-17 -0)
(-0 1.110223025e-16 -0)
(-0 -0 -0)
(-0 5.551115123e-17 -0)
(-0 -0 -0)
(-0 5.551115123e-17 -0)
(-0 5.551115123e-17 -0)
(-0 5.551115123e-17 -0)
(-0 -1.110223025e-16 -0)
(-0 1.110223025e-16 -0)
(-0 -0 -0)
(-0 1.110223025e-16 -0)
(-0 1.110223025e-16 -0)
(-0 5.551115123e-17 -0)
(-0 1.110223025e-16 -0)
(-0 2.220446049e-16 -0)
(-0 -0 -0)
(-0 1.110223025e-16 -0)
(-0 -0 -0)
(-0 -0 -0)
(-0 -0 -0)
(-0 -0 -0)
(-0 1.110223025e-16 -0)
(-0 1.110223025e-16 -0)
(-0 1.110223025e-16 -0)
(-0 -1.110223025e-16 -0)
(-0 1.110223025e-16 -0)
(-0 -0 -0)
(-0 1.110223025e-16 -0)
(-0 1.110223025e-16 -0)
(-0 1.110223025e-16 -0)
(-0 1.110223025e-16 -0)
(-0 2.220446049e-16 -0)
(-1.110223025e-16 -1.110223025e-16 -0)
(5.551115123e-17 1.110223025e-16 -0)
(-1.110223025e-16 -1.110223025e-16 -0)
(5.551115123e-17 -0 -0)
(-1.110223025e-16 -2.220446049e-16 -0)
(5.551115123e-17 -0 -0)
(-1.110223025e-16 -1.110223025e-16 -0)
(5.551115123e-17 2.220446049e-16 -0)
(-1.110223025e-16 -1.110223025e-16 -0)
(5.551115123e-17 1.110223025e-16 -0)
(-1.110223025e-16 -1.110223025e-16 -0)
(5.551115123e-17 2.775557562e-17 -0)
(-0 -0 -0)
(-0 -5.551115123e-17 -0)
(-0 -2.775557562e-17 -0)
(-0 -0 -0)
(-0 -1.110223025e-16 -0)
(-0 -5.551115123e-17 -0)
(-0 -0 -0)
(-0 -0 -0)
(-0 -5.551115123e-17 -0)
(-0 -0 -0)
(-0 -0 -0)
(-0 -0 -0)
(-0 -5.551115123e-17 -0)
(-0 5.551115123e-17 -0)
(-0 -0 -0)
(-0 -0 -0)
(-0 -0 -0)
(-0 -0 -0)
(-0 -0 -0)
(-0 -5.551115123e-17 -0)
(-0 -0 -0)
(-0 -0 -0)
(-0 -0 -0)
(-0 -0 -0)
(-0 -0 -0)
(-0 5.551115123e-17 -0)
(-0 -0 -0)
(-0 -0 -0)
(-0 -0 -0)
(-0 -1.110223025e-16 -0)
(-0 -0 -0)
(-0 -0 -0)
(-0 -0 -0)
(-0 -0 -0)
(-0 -0 -0)
(-0 -1.110223025e-16 -0)
(-0 -0 -0)
(-0 -0 -0)
(-0 -0 -0)
(-0 -0 -0)
(-0 -0 -0)
(-0 -0 -0)
(-0 -0 -0)
(-0 1.110223025e-16 -0)
(-0 -0 -0)
(-0 -0 -0)
(-0 1.110223025e-16 -0)
(5.551115123e-17 1.110223025e-16 -0)
(-0 1.110223025e-16 -0)
(-0 -0 -0)
(-0 -0 -0)
(-0 -0 -0)
(-0 1.110223025e-16 -0)
(-0 -0 -0)
(-0 -0 -0)
(-0 -0 -0)
(-0 -0 -0)
(-0 -0 -0)
(-0 -0 -0)
(-0 -0 -0)
(-0 -0 -0)
(-0 -0 -0)
(-0 -2.775557562e-17 -0)
(-0 -0 -0)
(-0 -0 -0)
(-0 -0 -0)
(-0 -0 -0)
(-1.110223025e-16 -0 -0)
(-0 -0 -0)
(-0 -0 -0)
(-0 -0 -0)
(-0 -0 -0)
(-0 -0 -0)
(-0 -0 -0)
(-0 -0 -0)
(-0 -0 -0)
(-0 -5.551115123e-17 -0)
(-0 -0 -0)
(-0 -0 -0)
(-0 -0 -0)
(-0 -0 -0)
(-0 -0 -0)
(-0 -0 -0)
(-0 -0 -0)
(-0 1.110223025e-16 -0)
(-0 -0 -0)
(-0 5.551115123e-17 -0)
(-0 5.551115123e-17 -0)
(-0 -0 -0)
(-0 -0 -0)
(-0 -2.220446049e-16 -0)
(-0 -0 -0)
(-0 -0 -0)
(-0 -0 -0)
(-0 -0 -0)
(-0 -0 -0)
(-0 1.110223025e-16 -0)
(-0 -0 -0)
(-0 -0 -0)
(-0 -1.110223025e-16 -0)
(-0 -0 -0)
(-0 1.110223025e-16 -0)
(-0 -0 -0)
(-0 -0 -0)
(-0 -0 -0)
(-0 -0 -0)
(-0 -0 -0)
(-0 2.220446049e-16 -0)
(-0 -0 -0)
(-0 -0 -0)
(-0 -1.110223025e-16 -0)
(-0 -0 -0)
(-0 -0 -0)
(-0 -1.110223025e-16 -0)
(-0 -2.220446049e-16 -0)
(-0 -0 -0)
(-0 -1.110223025e-16 -0)
(-0 -0 -0)
(-0 -2.220446049e-16 -0)
(-0 -0 -0)
(5.551115123e-17 -0 -0)
(5.551115123e-17 -0 -0)
(-5.551115123e-17 -2.775557562e-17 -0)
(5.551115123e-17 -0 -0)
(5.551115123e-17 -0 -0)
(5.551115123e-17 -0 -0)
(5.551115123e-17 -0 -0)
(5.551115123e-17 -0 -0)
(5.551115123e-17 -0 -0)
(5.551115123e-17 -0 -0)
(5.551115123e-17 -0 -0)
(5.551115123e-17 -0 -0)
(5.551115123e-17 -0 -0)
(5.551115123e-17 -0 -0)
(5.551115123e-17 -0 -0)
(5.551115123e-17 -0 -0)
(5.551115123e-17 -5.551115123e-17 -0)
(5.551115123e-17 -0 -0)
(5.551115123e-17 -0 -0)
(5.551115123e-17 -0 -0)
(5.551115123e-17 -0 -0)
(5.551115123e-17 -0 -0)
(5.551115123e-17 -0 -0)
(5.551115123e-17 -0 -0)
(5.551115123e-17 1.110223025e-16 -0)
(-0 -0 -0)
(5.551115123e-17 5.551115123e-17 -0)
(5.551115123e-17 5.551115123e-17 -0)
(5.551115123e-17 -0 -0)
(5.551115123e-17 -0 -0)
(5.551115123e-17 -2.220446049e-16 -0)
(5.551115123e-17 -0 -0)
(5.551115123e-17 -0 -0)
(5.551115123e-17 -0 -0)
(5.551115123e-17 -0 -0)
(-5.551115123e-17 -0 -0)
(5.551115123e-17 1.110223025e-16 -0)
(5.551115123e-17 -0 -0)
(5.551115123e-17 -0 -0)
(5.551115123e-17 -1.110223025e-16 -0)
(5.551115123e-17 -0 -0)
(5.551115123e-17 1.110223025e-16 -0)
(5.551115123e-17 -0 -0)
(5.551115123e-17 -0 -0)
(5.551115123e-17 -0 -0)
(5.551115123e-17 -0 -0)
(5.551115123e-17 -0 -0)
(5.551115123e-17 2.220446049e-16 -0)
(5.551115123e-17 -0 -0)
(5.551115123e-17 -0 -0)
(5.551115123e-17 -1.110223025e-16 -0)
(-0 -0 -0)
(5.551115123e-17 -0 -0)
(5.551115123e-17 -1.110223025e-16 -0)
(5.551115123e-17 -2.220446049e-16 -0)
(-0 -0 -0)
(5.551115123e-17 -1.110223025e-16 -0)
(5.551115123e-17 -0 -0)
(5.551115123e-17 -2.220446049e-16 -0)
(5.551115123e-17 2.775557562e-17 -0)
(1.110223025e-16 -0 -0)
(1.110223025e-16 -5.551115123e-17 -0)
(5.551115123e-17 -2.775557562e-17 -0)
(1.110223025e-16 -0 -0)
(1.110223025e-16 -1.110223025e-16 -0)
(1.110223025e-16 -5.551115123e-17 -0)
(1.110223025e-16 -0 -0)
(-0 -0 -0)
(1.110223025e-16 -5.551115123e-17 -0)
(1.110223025e-16 -0 -0)
(1.110223025e-16 -0 -0)
(1.110223025e-16 -0 -0)
(1.110223025e-16 -5.551115123e-17 -0)
(-0 5.551115123e-17 -0)
(1.110223025e-16 -0 -0)
(1.110223025e-16 -0 -0)
(1.110223025e-16 -0 -0)
(1.110223025e-16 -0 -0)
(1.110223025e-16 -0 -0)
(-0 -5.551115123e-17 -0)
(1.110223025e-16 -0 -0)
(1.110223025e-16 -0 -0)
(1.110223025e-16 -0 -0)
(1.110223025e-16 -0 -0)
(1.110223025e-16 -0 -0)
(-0 5.551115123e-17 -0)
(1.110223025e-16 -0 -0)
(1.110223025e-16 -0 -0)
(1.110223025e-16 -0 -0)
(1.110223025e-16 -1.110223025e-16 -0)
(1.110223025e-16 -0 -0)
(1.110223025e-16 -0 -0)
(1.110223025e-16 -0 -0)
(1.110223025e-16 -0 -0)
(1.110223025e-16 -0 -0)
(-5.551115123e-17 -1.110223025e-16 -0)
(1.110223025e-16 -0 -0)
(1.110223025e-16 -0 -0)
(1.110223025e-16 -0 -0)
(1.110223025e-16 -0 -0)
(1.110223025e-16 -0 -0)
(1.110223025e-16 -0 -0)
(1.110223025e-16 -0 -0)
(1.110223025e-16 1.110223025e-16 -0)
(1.110223025e-16 -0 -0)
(1.110223025e-16 -0 -0)
(1.110223025e-16 1.110223025e-16 -0)
(5.551115123e-17 1.110223025e-16 -0)
(1.110223025e-16 1.110223025e-16 -0)
(-0 -0 -0)
(1.110223025e-16 -0 -0)
(1.110223025e-16 -0 -0)
(1.110223025e-16 1.110223025e-16 -0)
(-0 -0 -0)
(1.110223025e-16 -0 -0)
(1.110223025e-16 -0 -0)
(1.110223025e-16 -0 -0)
(-0 -0 -0)
(1.110223025e-16 -0 -0)
(-0 -0 -0)
(5.551115123e-17 -0 -0)
(5.551115123e-17 2.775557562e-17 -0)
(1.110223025e-16 -8.326672685e-17 -0)
(5.551115123e-17 2.775557562e-17 -0)
(5.551115123e-17 -0 -0)
(5.551115123e-17 -0 -0)
(5.551115123e-17 -0 -0)
(-5.551115123e-17 -5.551115123e-17 -0)
(5.551115123e-17 5.551115123e-17 -0)
(5.551115123e-17 5.551115123e-17 -0)
(5.551115123e-17 1.665334537e-16 -0)
(5.551115123e-17 1.110223025e-16 -0)
(5.551115123e-17 5.551115123e-17 -0)
(-0 -0 -0)
(5.551115123e-17 5.551115123e-17 -0)
(5.551115123e-17 5.551115123e-17 -0)
(5.551115123e-17 1.110223025e-16 -0)
(5.551115123e-17 -0 -0)
(5.551115123e-17 1.110223025e-16 -0)
(-0 -0 -0)
(5.551115123e-17 5.551115123e-17 -0)
(5.551115123e-17 5.551115123e-17 -0)
(5.551115123e-17 5.551115123e-17 -0)
(5.551115123e-17 5.551115123e-17 -0)
(5.551115123e-17 1.110223025e-16 -0)
(-0 -0 -0)
(5.551115123e-17 1.110223025e-16 -0)
(5.551115123e-17 1.110223025e-16 -0)
(5.551115123e-17 1.665334537e-16 -0)
(5.551115123e-17 1.110223025e-16 -0)
(5.551115123e-17 1.110223025e-16 -0)
(5.551115123e-17 -0 -0)
(5.551115123e-17 1.110223025e-16 -0)
(5.551115123e-17 -0 -0)
(5.551115123e-17 -0 -0)
(-0 -0 -0)
(5.551115123e-17 -0 -0)
(5.551115123e-17 1.110223025e-16 -0)
(5.551115123e-17 1.110223025e-16 -0)
(5.551115123e-17 1.110223025e-16 -0)
(5.551115123e-17 -1.110223025e-16 -0)
(5.551115123e-17 1.110223025e-16 -0)
(5.551115123e-17 -0 -0)
(5.551115123e-17 1.110223025e-16 -0)
(5.551115123e-17 1.110223025e-16 -0)
(5.551115123e-17 2.220446049e-16 -0)
(5.551115123e-17 1.110223025e-16 -0)
(-0 2.220446049e-16 -0)
(-0 -1.110223025e-16 -0)
(5.551115123e-17 1.110223025e-16 -0)
(-0 -1.110223025e-16 -0)
(1.110223025e-16 1.110223025e-16 -0)
(-0 -2.220446049e-16 -0)
(5.551115123e-17 -0 -0)
(-0 -1.110223025e-16 -0)
(1.110223025e-16 3.330669074e-16 -0)
(-0 -1.110223025e-16 -0)
(5.551115123e-17 1.110223025e-16 -0)
(-0 -1.110223025e-16 -0)
(-5.551115123e-17 -2.775557562e-17 -0)
(-0 -0 -0)
(-0 -0 -0)
(-5.551115123e-17 -2.775557562e-17 -0)
(-0 -0 -0)
(-0 -0 -0)
(-0 -0 -0)
(-0 -0 -0)
(-5.551115123e-17 5.551115123e-17 -0)
(-0 -0 -0)
(-0 -0 -0)
(-0 -0 -0)
(-0 -0 -0)
(-0 -0 -0)
(-5.551115123e-17 -0 -0)
(-0 -0 -0)
(-0 -0 -0)
(-0 -5.551115123e-17 -0)
(-0 -0 -0)
(-0 -0 -0)
(-5.551115123e-17 5.551115123e-17 -0)
(-0 -0 -0)
(-0 -0 -0)
(-0 -0 -0)
(-0 -0 -0)
(-0 1.110223025e-16 -0)
(5.551115123e-17 5.551115123e-17 -0)
(-0 -0 -0)
(5.551115123e-17 -0 -0)
(-0 -0 -0)
(-0 -0 -0)
(-5.551115123e-17 -2.220446049e-16 -0)
(-0 -0 -0)
(-0 -0 -0)
(-0 -0 -0)
(-0 -0 -0)
(-5.551115123e-17 -0 -0)
(-0 1.110223025e-16 -0)
(-0 -0 -0)
(-0 -0 -0)
(-0 -1.110223025e-16 -0)
(-0 -0 -0)
(-0 1.110223025e-16 -0)
(-0 -0 -0)
(-0 -0 -0)
(-0 -0 -0)
(-0 -1.110223025e-16 -0)
(-0 -0 -0)
(1.110223025e-16 -0 -0)
(-5.551115123e-17 -0 -0)
(5.551115123e-17 -0 -0)
(-5.551115123e-17 -1.110223025e-16 -0)
(5.551115123e-17 2.220446049e-16 -0)
(-5.551115123e-17 -0 -0)
(5.551115123e-17 -0 -0)
(-5.551115123e-17 -0 -0)
(5.551115123e-17 -0 -0)
(-5.551115123e-17 -1.110223025e-16 -0)
(5.551115123e-17 -0 -0)
(-5.551115123e-17 -0 -0)
(-5.551115123e-17 -2.775557562e-17 -0)
(-0 -0 -0)
(-0 -5.551115123e-17 -0)
(-0 -2.775557562e-17 -0)
(-0 2.775557562e-17 -0)
(-0 -1.110223025e-16 -0)
(-0 -5.551115123e-17 -0)
(-0 -0 -0)
(-5.551115123e-17 -0 -0)
(-0 -5.551115123e-17 -0)
(-0 -0 -0)
(-0 -0 -0)
(-0 -5.551115123e-17 -0)
(-0 5.551115123e-17 -0)
(-0 5.551115123e-17 -0)
(-0 -0 -0)
(-0 -0 -0)
(-0 -0 -0)
(-0 -0 -0)
(-0 -0 -0)
(-0 -5.551115123e-17 -0)
(-0 -5.551115123e-17 -0)
(-0 -0 -0)
(-0 -0 -0)
(-0 -0 -0)
(-0 1.110223025e-16 -0)
(-0 -0 -0)
(-0 -0 -0)
(-0 -0 -0)
(5.551115123e-17 -0 -0)
(5.551115123e-17 -1.110223025e-16 -0)
(-0 -0 -0)
(-0 -0 -0)
(-0 -0 -0)
(5.551115123e-17 2.220446049e-16 -0)
(-0 -1.110223025e-16 -0)
(-0 -1.110223025e-16 -0)
(-0 -0 -0)
(-0 -0 -0)
(-0 -1.110223025e-16 -0)
(-0 -0 -0)
(-0 -0 -0)
(-0 -0 -0)
(-0 -0 -0)
(-0 1.110223025e-16 -0)
(-0 -0 -0)
(-0 -0 -0)
(-0 1.110223025e-16 -0)
(-5.551115123e-17 -1.110223025e-16 -0)
(-0 1.110223025e-16 -0)
(-0 -0 -0)
(-0 -0 -0)
(-0 -0 -0)
(-0 -0 -0)
(-0 -0 -0)
(-0 -0 -0)
(-0 -0 -0)
(-0 -0 -0)
(-0 -0 -0)
(-0 -0 -0)
(-0 2.775557562e-17 -0)
(-0 -0 -0)
(-0 2.775557562e-17 -0)
(-0 -0 -0)
(-0 8.326672685e-17 -0)
(-0 -0 -0)
(-0 -0 -0)
(-0 -5.551115123e-17 -0)
(-0 5.551115123e-17 -0)
(-0 -0 -0)
(-0 -5.551115123e-17 -0)
(-0 -0 -0)
(-0 -0 -0)
(-0 -0 -0)
(-0 5.551115123e-17 -0)
(-0 5.551115123e-17 -0)
(-0 -0 -0)
(-0 -0 -0)
(-0 -5.551115123e-17 -0)
(-0 -0 -0)
(-0 5.551115123e-17 -0)
(-0 -0 -0)
(-0 -0 -0)
(-0 -1.110223025e-16 -0)
(-0 -0 -0)
(-5.551115123e-17 -0 -0)
(5.551115123e-17 5.551115123e-17 -0)
(-0 -0 -0)
(-0 5.551115123e-17 -0)
(-0 -0 -0)
(-0 -0 -0)
(-0 -2.220446049e-16 -0)
(-0 -0 -0)
(-0 -0 -0)
(5.551115123e-17 2.220446049e-16 -0)
(-5.551115123e-17 -0 -0)
(-0 -1.110223025e-16 -0)
(-0 1.110223025e-16 -0)
(-0 -0 -0)
(-0 -0 -0)
(-0 -1.110223025e-16 -0)
(-0 -0 -0)
(-0 2.220446049e-16 -0)
(-0 -0 -0)
(-0 -0 -0)
(-0 2.220446049e-16 -0)
(-0 -1.110223025e-16 -0)
(-0 -0 -0)
(-0 -0 -0)
(-0 -0 -0)
(-0 -0 -0)
(-0 -1.110223025e-16 -0)
(-0 -0 -0)
(-0 -0 -0)
(-0 -1.110223025e-16 -0)
(-0 -0 -0)
(-0 -0 -0)
(-0 -1.110223025e-16 -0)
(-0 -0 -0)
(-0 -3.330669074e-16 -0)
(5.551115123e-17 -2.775557562e-17 -0)
(-0 -0 -0)
(-0 -0 -0)
(1.110223025e-16 -0 -0)
(-0 -0 -0)
(-0 -0 -0)
(-0 5.551115123e-17 -0)
(-0 5.551115123e-17 -0)
(-0 -0 -0)
(-0 -0 -0)
(-0 5.551115123e-17 -0)
(-0 -0 -0)
(-0 -0 -0)
(-0 -0 -0)
(-0 -0 -0)
(-0 -0 -0)
(-0 -0 -0)
(-0 -5.551115123e-17 -0)
(-0 -0 -0)
(-0 -0 -0)
(-0 -0 -0)
(-0 -0 -0)
(-0 -0 -0)
(-0 5.551115123e-17 -0)
(5.551115123e-17 1.665334537e-16 -0)
(-0 1.110223025e-16 -0)
(-5.551115123e-17 -5.551115123e-17 -0)
(-0 5.551115123e-17 -0)
(-0 5.551115123e-17 -0)
(-0 -5.551115123e-17 -0)
(-0 -0 -0)
(-0 -2.220446049e-16 -0)
(-0 -0 -0)
(-0 -0 -0)
(-0 -0 -0)
(-0 1.110223025e-16 -0)
(-0 -0 -0)
(-0 -0 -0)
(-0 -0 -0)
(-0 -0 -0)
(-0 -0 -0)
(-0 -0 -0)
(-0 -1.110223025e-16 -0)
(-0 -0 -0)
(-0 -0 -0)
(-0 -0 -0)
(-0 -0 -0)
(-0 -0 -0)
(1.110223025e-16 2.220446049e-16 -0)
(5.551115123e-17 -0 -0)
(-0 -0 -0)
(5.551115123e-17 -1.110223025e-16 -0)
(-0 -0 -0)
(5.551115123e-17 -0 -0)
(-0 -1.110223025e-16 -0)
(5.551115123e-17 -2.220446049e-16 -0)
(-0 -0 -0)
(5.551115123e-17 -1.110223025e-16 -0)
(-0 -0 -0)
(5.551115123e-17 -2.220446049e-16 -0)
(-0 5.551115123e-17 -0)
(-0 -0 -0)
(-0 -8.326672685e-17 -0)
(-0 -0 -0)
(-0 -0 -0)
(-0 -5.551115123e-17 -0)
(-0 -0 -0)
(-0 -0 -0)
(-0 -0 -0)
(-0 -0 -0)
(-0 -5.551115123e-17 -0)
(-0 -0 -0)
(-0 -5.551115123e-17 -0)
(-0 -0 -0)
(-0 -0 -0)
(-0 -0 -0)
(-0 5.551115123e-17 -0)
(-0 -0 -0)
(-0 -5.551115123e-17 -0)
(-0 -5.551115123e-17 -0)
(-0 5.551115123e-17 -0)
(-0 -0 -0)
(-0 5.551115123e-17 -0)
(5.551115123e-17 5.551115123e-17 -0)
(-0 -0 -0)
(-0 -0 -0)
(-5.551115123e-17 -5.551115123e-17 -0)
(-0 -0 -0)
(-0 -0 -0)
(-0 -0 -0)
(-0 -0 -0)
(-0 -0 -0)
(-0 1.110223025e-16 -0)
(-0 -0 -0)
(-0 -0 -0)
(-0 -0 -0)
(-0 1.110223025e-16 -0)
(-0 -0 -0)
(-0 -0 -0)
(-0 -2.220446049e-16 -0)
(-0 -0 -0)
(-0 -0 -0)
(-0 -0 -0)
(-0 -0 -0)
(-0 -0 -0)
(-0 -0 -0)
(-0 -0 -0)
(-0 1.110223025e-16 -0)
(-0 -0 -0)
(-0 -0 -0)
(-0 -0 -0)
(-0 -0 -0)
(-0 -0 -0)
(-0 -0 -0)
(-0 -0 -0)
(-0 -1.110223025e-16 -0)
(-0 -0 -0)
(-0 -2.220446049e-16 -0)
(-0 -0 -0)
(-0 -0 -0)
(-0 -0 -0)
(-0 -0 -0)
(-0 -0 -0)
(-0 -2.775557562e-17 -0)
(-0 -0 -0)
(-0 -0 -0)
(-0 -0 -0)
(-0 -0 -0)
(-0 -0 -0)
(-0 -0 -0)
(-0 -0 -0)
(-0 -0 -0)
(-0 -0 -0)
(-0 -0 -0)
(-0 -0 -0)
(-0 -0 -0)
(-0 -0 -0)
(-0 -5.551115123e-17 -0)
(-0 -0 -0)
(-0 -0 -0)
(-0 -0 -0)
(-0 -0 -0)
(-0 -0 -0)
(-0 -0 -0)
(-0 -0 -0)
(-0 1.110223025e-16 -0)
(-0 -0 -0)
(-0 5.551115123e-17 -0)
(-0 5.551115123e-17 -0)
(-0 -0 -0)
(-0 -0 -0)
(-0 -2.220446049e-16 -0)
(-0 -0 -0)
(-0 -0 -0)
(-0 -0 -0)
(-0 -0 -0)
(-1.110223025e-16 -0 -0)
(-0 1.110223025e-16 -0)
(-0 -0 -0)
(-0 -0 -0)
(-0 -1.110223025e-16 -0)
(-0 -0 -0)
(-0 1.110223025e-16 -0)
(-0 -0 -0)
(-0 -0 -0)
(-0 -0 -0)
(-0 -0 -0)
(-0 -0 -0)
(-0 2.220446049e-16 -0)
(-0 -0 -0)
(-0 -0 -0)
(-0 -1.110223025e-16 -0)
(-0 -0 -0)
(-0 -0 -0)
(-0 -1.110223025e-16 -0)
(-0 -2.220446049e-16 -0)
(-0 -0 -0)
(-0 -1.110223025e-16 -0)
(-0 -0 -0)
(-0 -2.220446049e-16 -0)
(-5.551115123e-17 -0 -0)
(5.551115123e-17 -0 -0)
(5.551115123e-17 -0 -0)
(-0 -2.775557562e-17 -0)
(5.551115123e-17 -0 -0)
(5.551115123e-17 -0 -0)
(5.551115123e-17 -0 -0)
(5.551115123e-17 -0 -0)
(-0 -0 -0)
(5.551115123e-17 -0 -0)
(5.551115123e-17 -0 -0)
(5.551115123e-17 -0 -0)
(5.551115123e-17 -0 -0)
(5.551115123e-17 -0 -0)
(-0 -0 -0)
(5.551115123e-17 -0 -0)
(5.551115123e-17 -0 -0)
(5.551115123e-17 -5.551115123e-17 -0)
(5.551115123e-17 -0 -0)
(5.551115123e-17 -0 -0)
(-0 -0 -0)
(5.551115123e-17 -0 -0)
(5.551115123e-17 -0 -0)
(-0 -0 -0)
(-0 -0 -0)
(-0 1.110223025e-16 -0)
(-0 -0 -0)
(-0 5.551115123e-17 -0)
(-0 5.551115123e-17 -0)
(-0 -0 -0)
(-0 -0 -0)
(-0 -2.220446049e-16 -0)
(-0 -0 -0)
(-0 -0 -0)
(-0 -0 -0)
(-0 -0 -0)
(-5.551115123e-17 -0 -0)
(5.551115123e-17 1.110223025e-16 -0)
(5.551115123e-17 -0 -0)
(5.551115123e-17 -0 -0)
(5.551115123e-17 -1.110223025e-16 -0)
(5.551115123e-17 -0 -0)
(5.551115123e-17 1.110223025e-16 -0)
(5.551115123e-17 -0 -0)
(5.551115123e-17 -0 -0)
(5.551115123e-17 -0 -0)
(5.551115123e-17 -0 -0)
(5.551115123e-17 -0 -0)
(-0 2.220446049e-16 -0)
(5.551115123e-17 -0 -0)
(-0 -0 -0)
(5.551115123e-17 -1.110223025e-16 -0)
(-0 -0 -0)
(5.551115123e-17 -0 -0)
(-0 -1.110223025e-16 -0)
(5.551115123e-17 -2.220446049e-16 -0)
(-0 -0 -0)
(5.551115123e-17 -1.110223025e-16 -0)
(-0 -0 -0)
(5.551115123e-17 -2.220446049e-16 -0)
(5.551115123e-17 2.775557562e-17 -0)
(-0 -0 -0)
(-0 -5.551115123e-17 -0)
(-0 -2.775557562e-17 -0)
(-0 -0 -0)
(-0 -1.110223025e-16 -0)
(-0 -5.551115123e-17 -0)
(-0 -0 -0)
(-0 -0 -0)
(-0 -5.551115123e-17 -0)
(-0 -0 -0)
(-0 -0 -0)
(-0 -0 -0)
(-0 -5.551115123e-17 -0)
(-0 5.551115123e-17 -0)
(-0 -0 -0)
(-0 -0 -0)
(-0 -0 -0)
(-0 -0 -0)
(-0 -0 -0)
(-0 -5.551115123e-17 -0)
(-0 -0 -0)
(-0 -0 -0)
(-0 5.551115123e-17 -0)
(-0 -0 -0)
(-0 -0 -0)
(-0 5.551115123e-17 -0)
(-0 -0 -0)
(-0 -0 -0)
(-0 -0 -0)
(-0 -1.110223025e-16 -0)
(-0 -0 -0)
(-0 -0 -0)
(-0 -0 -0)
(-0 -0 -0)
(-0 -0 -0)
(5.551115123e-17 -1.110223025e-16 -0)
(-0 -0 -0)
(-0 -0 -0)
(-0 -0 -0)
(-0 -0 -0)
(-0 -0 -0)
(-0 -0 -0)
(-0 -0 -0)
(-0 1.110223025e-16 -0)
(-0 -0 -0)
(-0 -0 -0)
(-0 1.110223025e-16 -0)
(5.551115123e-17 1.110223025e-16 -0)
(-0 1.110223025e-16 -0)
(-5.551115123e-17 -0 -0)
(5.551115123e-17 -0 -0)
(-0 -0 -0)
(-0 1.110223025e-16 -0)
(-5.551115123e-17 -0 -0)
(5.551115123e-17 -0 -0)
(-0 -0 -0)
(-0 -0 -0)
(-5.551115123e-17 -0 -0)
(5.551115123e-17 -0 -0)
(-0 -0 -0)
(-0 -0 -0)
(-0 -0 -0)
(-5.551115123e-17 -2.775557562e-17 -0)
(-0 -0 -0)
(-0 -0 -0)
(-0 -0 -0)
(-0 -0 -0)
(-0 -0 -0)
(-0 -0 -0)
(-0 -0 -0)
(-0 -0 -0)
(-0 -0 -0)
(-0 -0 -0)
(-0 -0 -0)
(-0 -0 -0)
(-0 -0 -0)
(-0 -5.551115123e-17 -0)
(-0 -0 -0)
(-0 -0 -0)
(-0 -0 -0)
(-0 -0 -0)
(-0 -0 -0)
(-0 -0 -0)
(-0 -0 -0)
(-0 1.110223025e-16 -0)
(-0 -0 -0)
(-0 5.551115123e-17 -0)
(-0 5.551115123e-17 -0)
(-0 -0 -0)
(-0 -0 -0)