/*--------------------------------*- C++ -*----------------------------------*\
  =========                 |
  \\      /  F ield         | OpenFOAM: The Open Source CFD Toolbox
   \\    /   O peration     | Website:  https://openfoam.org
    \\  /    A nd           | Version:  8
     \\/     M anipulation  |
\*---------------------------------------------------------------------------*/
FoamFile
{
    version     2.0;
    format      ascii;
    class       volScalarField;
    location    "0";
    object      k;
}
// * * * * * * * * * * * * * * * * * * * * * * * * * * * * * * * * * * * * * //
#湍流强度
dimensions      [0 2 -2 0 0 0 0];

internalField   uniform 1e-5;

boundaryField
{
    walls
    {
        type            kqRWallFunction;
        #This boundary condition provides a suitable condition for turbulence k, q, and R fields for the case of high Reynolds number flow using wall functions. 
        value           uniform 1e-5;
    }

    "(region0_to.*)"
    {
        type            kqRWallFunction;
        value           uniform 1e-05;
    }
}


// ************************************************************************* //
