/*--------------------------------*- C++ -*----------------------------------*\
  =========                 |
  \\      /  F ield         | OpenFOAM: The Open Source CFD Toolbox
   \\    /   O peration     | Website:  https://openfoam.org
    \\  /    A nd           | Version:  8
     \\/     M anipulation  |
\*---------------------------------------------------------------------------*/
FoamFile
{
    version     2.0;
    format      ascii;
    class       volVectorField;
    location    "0/wallFilmRegion";
    object      U;
}
// * * * * * * * * * * * * * * * * * * * * * * * * * * * * * * * * * * * * * //
//液膜速度条件
dimensions      [0 1 -1 0 0 0 0];

internalField   uniform (0 0 0);

boundaryField
{
    // top film surface
    "(.*top)"
    {
        type            slip;
        //滑移壁面
    }

    // mapped boundaries
    "(region0_to.*)"
    {
        type            slip;
    }

    // floor sides
    walls
    {
        type            noSlip;
        //非滑移壁面
    }
}

// ************************************************************************* //
