/*--------------------------------*- C++ -*----------------------------------*\
  =========                 |
  \\      /  F ield         | OpenFOAM: The Open Source CFD Toolbox
   \\    /   O peration     | Website:  https://openfoam.org
    \\  /    A nd           | Version:  8
     \\/     M anipulation  |
\*---------------------------------------------------------------------------*/
FoamFile
{
    version     2.0;
    format      ascii;
    class       featureEdgeMesh;
    location    "constant/triSurface";
    object      mirror.eMesh;
}
// * * * * * * * * * * * * * * * * * * * * * * * * * * * * * * * * * * * * * //


// points:

315
(
(0.400000006 0.4500000775 0.3100796342)
(0.400000006 0.5499999523 0.3099203706)
(0.5489567518 0.4900324047 0.310015887)
(0.5485078692 0.4880596697 0.3100190163)
(0.5432667732 0.4750201702 0.3100397885)
(0.5442274213 0.4767876267 0.3100369573)
(0.5040045381 0.5497943163 0.3099206984)
(0.5020059347 0.5499223471 0.3099204898)
(0.4399931133 0.4500206113 0.3100796044)
(0.4419951141 0.4500216246 0.3100796044)
(0.400000006 0.478000015 0.3100350499)
(0.400000006 0.4760000408 0.310038209)
(0.400000006 0.4500128031 0.3180796206)
(0.400000006 0.4500159919 0.3200796247)
(0.4100068808 0.5499947667 0.3099203706)
(0.4080049098 0.5499958396 0.3099203706)
(0.400000006 0.537999928 0.3099394739)
(0.400000006 0.5359999537 0.3099426627)
(0.400000006 0.523999989 0.309961766)
(0.400000006 0.5259999633 0.3099585772)
(0.400000006 0.5459999442 0.3099267483)
(0.400000006 0.5479999185 0.3099235594)
(0.400000006 0.5319999456 0.3099490404)
(0.400000006 0.5299999714 0.3099522293)
(0.400000006 0.5219999552 0.3099649549)
(0.400000006 0.5019999743 0.3099968135)
(0.400000006 0.5 0.3100000024)
(0.5300064683 0.5399311781 0.3099364042)
(0.5283846259 0.5411219001 0.3099344969)
(0.5360370874 0.5346142054 0.3099448681)
(0.5346008539 0.5360233784 0.3099426329)
(0.531596303 0.5386987329 0.3099383712)
(0.5232223868 0.5442466736 0.3099295199)
(0.521412909 0.5451268554 0.3099281192)
(0.5195816159 0.545959115 0.3099268079)
(0.400000006 0.4500096142 0.3160796165)
(0.5079758763 0.5493336916 0.3099214137)
(0.5059938431 0.5495885611 0.3099210262)
(0.5138941407 0.4520060718 0.3100764453)
(0.515814364 0.4526210129 0.3100754619)
(0.400000006 0.4500032365 0.3120796382)
(0.400000006 0.4500064254 0.3140796423)
(0.5249758363 0.4567408562 0.3100689054)
(0.5232223868 0.4557533264 0.3100704551)
(0.5283846259 0.4588780701 0.3100655079)
(0.5300064683 0.4600687921 0.3100636005)
(0.5399476886 0.469981432 0.3100478053)
(0.5411074758 0.4716256857 0.3100451827)
(0.5422235131 0.4732992351 0.3100425303)
(0.400000006 0.5249236226 0.3633058667)
(0.400000006 0.5266391635 0.36227718)
(0.400000006 0.4806183875 0.3660750091)
(0.400000006 0.478803277 0.3652235568)
(0.400000006 0.54399997 0.3099299371)
(0.400000006 0.4501202106 0.3223204315)
(0.400000006 0.4502243996 0.3245612681)
(0.5474004149 0.5158231258 0.3099747896)
(0.5479794741 0.513890028 0.3099778891)
(0.4020007253 0.4500010908 0.3100796342)
(0.404001683 0.450002104 0.3100796342)
(0.5386929512 0.4684080482 0.3100503087)
(0.495998323 0.5499505997 0.30992046)
(0.4979992807 0.5499495864 0.30992046)
(0.400000006 0.5495563149 0.3263856769)
(0.400000006 0.5498217344 0.3244026303)
(0.4240008593 0.4500123858 0.3100796044)
(0.4220026731 0.4500113726 0.3100796044)
(0.400000006 0.476995647 0.364356637)
(0.400000006 0.539834857 0.3501785398)
(0.400000006 0.5410163403 0.3485604227)
(0.4020007253 0.5499988794 0.3099203706)
(0.404001683 0.5499978662 0.3099203706)
(0.4060030878 0.4500031471 0.3100796342)
(0.400000006 0.4718500972 0.3612746596)
(0.400000006 0.4735274911 0.3623617887)
(0.400000006 0.4642192423 0.3548381627)
(0.400000006 0.4628344774 0.3533943892)
(0.400000006 0.547919333 0.3342018127)
(0.400000006 0.5484498143 0.3322777152)
(0.4240008593 0.5499876142 0.3099204004)
(0.4259991348 0.5499866009 0.3099204004)
(0.400000006 0.4824928343 0.3667750955)
(0.4899931252 0.4500463009 0.3100795448)
(0.4879915416 0.4500452578 0.3100795746)
(0.400000006 0.5199999809 0.3099681437)
(0.400000006 0.4941079021 0.3696221709)
(0.400000006 0.4921298027 0.369332701)
(0.400000006 0.5283131003 0.3611847162)
(0.400000006 0.5119786859 0.3685177863)
(0.400000006 0.5100265145 0.3689470887)
(0.400000006 0.5279999375 0.3099554181)
(0.4879915416 0.5499547124 0.3099204302)
(0.4859909415 0.5499557853 0.3099204302)
(0.4080049098 0.4500041604 0.3100796342)
(0.4100068808 0.4500052035 0.3100796342)
(0.400000006 0.4752463102 0.3633850217)
(0.400000006 0.5488915443 0.3303281367)
(0.400000006 0.4550020993 0.3417658806)
(0.400000006 0.4542206228 0.3399455547)
(0.400000006 0.5419999361 0.3099330962)
(0.400000006 0.5499187708 0.3221614957)
(0.4060030878 0.5499968529 0.3099203706)
(0.400000006 0.533030808 0.3574833274)
(0.400000006 0.5315262079 0.3588020802)
(0.400000006 0.4527764618 0.3362480998)
(0.400000006 0.4521579742 0.334354341)
(0.400000006 0.4534399211 0.3381233215)
(0.400000006 0.4559621215 0.3435431421)
(0.4120084345 0.4500062168 0.3100796342)
(0.400000006 0.5492908955 0.3283687234)
(0.400000006 0.5500158668 0.319920361)
(0.4160084128 0.5499917269 0.3099203706)
(0.4140090644 0.5499927402 0.3099203706)
(0.5099640489 0.5489464998 0.3099220395)
(0.5119392872 0.5485059023 0.3099227548)
(0.400000006 0.5473068953 0.3360975385)
(0.4180068076 0.5499907136 0.3099203706)
(0.4200047255 0.5499896407 0.3099203706)
(0.4220026731 0.5499886274 0.3099203706)
(0.4720026851 0.5499629378 0.3099204302)
(0.4700047374 0.5499639511 0.3099204302)
(0.4660084248 0.5499660373 0.3099204302)
(0.4640090466 0.5499670506 0.3099204302)
(0.400000006 0.5399999619 0.309936285)
(0.400000006 0.4979999959 0.3100031912)
(0.400000006 0.5180000067 0.3099713326)
(0.400000006 0.5159999728 0.3099745214)
(0.400000006 0.4620000422 0.3100605309)
(0.400000006 0.4600000381 0.3100637197)
(0.5138941407 0.5479938984 0.3099235594)
(0.400000006 0.4511734545 0.3304837644)
(0.400000006 0.4516213834 0.3324319124)
(0.400000006 0.5339999795 0.3099458516)
(0.4819931984 0.5499578118 0.3099204302)
(0.4799952805 0.5499588251 0.3099204302)
(0.4180068076 0.4500093162 0.3100796044)
(0.4160084128 0.4500082731 0.3100796342)
(0.5331286788 0.537394166 0.3099404573)
(0.400000006 0.4959999919 0.3100063801)
(0.4740008712 0.4500380754 0.3100795746)
(0.4759991467 0.4500390887 0.3100795746)
(0.4339915812 0.5499824882 0.3099204004)
(0.4359909594 0.5499814749 0.3099204004)
(0.545956254 0.5195798874 0.3099688292)
(0.5451416969 0.5214201212 0.3099658787)
(0.400000006 0.5099999905 0.3099840879)
(0.400000006 0.5080000162 0.309987247)
(0.4680067897 0.549965024 0.3099204302)
(0.445998311 0.4500236809 0.3100796044)
(0.4479992688 0.450024724 0.3100796044)
(0.4379915595 0.4500195682 0.3100796044)
(0.5442274213 0.5232123733 0.3099630177)
(0.5467051864 0.4822874963 0.3100281954)
(0.5474004149 0.4841768742 0.3100252151)
(0.5266979933 0.4577802122 0.3100672364)
(0.515814364 0.5473790169 0.3099245429)
(0.517716229 0.5467143059 0.309925586)
(0.5360370874 0.4653857946 0.3100551367)
(0.5346008539 0.4639766216 0.3100573719)
(0.4839915633 0.4500432014 0.3100795746)
(0.4859909415 0.4500442445 0.3100795746)
(0.4319931865 0.4500164986 0.3100796044)
(0.4299952686 0.4500154853 0.3100796044)
(0.5499100685 0.5020041466 0.3099968135)
(0.5499743223 0.5 0.3100000024)
(0.4740008712 0.5499619246 0.3099204302)
(0.5266979933 0.5422198176 0.3099327683)
(0.5386929512 0.5315919518 0.3099496961)
(0.5399476886 0.530018568 0.3099521995)
(0.5411074758 0.5283743143 0.3099548221)
(0.5422235131 0.5267007351 0.3099574745)
(0.5432667732 0.5249798298 0.3099602163)
(0.5467051864 0.5177124739 0.3099717796)
(0.5485078096 0.5119403601 0.3099809885)
(0.5489567518 0.5099676251 0.3099841177)
(0.5493083596 0.5079717636 0.3099873066)
(0.5499100685 0.4979958832 0.3100031912)
(0.5493083596 0.4920282066 0.3100126982)
(0.5496020913 0.4940038621 0.3100095391)
(0.4200047255 0.4500103295 0.3100796044)
(0.545956254 0.4804200828 0.3100311756)
(0.5451416969 0.4785798788 0.310034126)
(0.5040045381 0.4502056837 0.3100793064)
(0.5059938431 0.4504114389 0.3100789785)
(0.5020059347 0.4500776827 0.310079515)
(0.400000006 0.4591066837 0.3486908376)
(0.400000006 0.4602932334 0.3503051102)
(0.400000006 0.4615432024 0.3518674672)
(0.5 0.4500514269 0.3100795448)
(0.4979992807 0.4500504136 0.3100795448)
(0.4499999881 0.4500257373 0.3100796044)
(0.4520007074 0.4500267804 0.3100796044)
(0.400000006 0.4671206176 0.3575882912)
(0.400000006 0.4686294198 0.3589022756)
(0.400000006 0.5466493964 0.3379748464)
(0.400000006 0.456921339 0.3453189135)
(0.400000006 0.5213729739 0.3651555479)
(0.400000006 0.5231776237 0.3642829955)
(0.400000006 0.5176889896 0.3667186499)
(0.400000006 0.5195608139 0.3660127521)
(0.400000006 0.5385899544 0.3517448008)
(0.400000006 0.5359233618 0.3547239602)
(0.400000006 0.5373035669 0.3532758057)
(0.400000006 0.4579981863 0.3470169008)
(0.400000006 0.4504961371 0.3265434504)
(0.400000006 0.5299294591 0.3600064218)
(0.400000006 0.508059144 0.3693073392)
(0.400000006 0.545874536 0.339799583)
(0.400000006 0.5020961761 0.3699463904)
(0.400000006 0.5040899515 0.3697855771)
(0.4259991348 0.4500134289 0.3100796044)
(0.400000006 0.534535408 0.3561645746)
(0.400000006 0.4507678449 0.3285256326)
(0.400000006 0.5139016509 0.3679838181)
(0.400000006 0.4961004853 0.3697983027)
(0.5249758363 0.5432591438 0.3099310994)
(0.4120084345 0.5499937534 0.3099203706)
(0.400000006 0.5450988412 0.3416224122)
(0.4279973209 0.549985528 0.3099204004)
(0.4299952686 0.5499845147 0.3099204004)
(0.4379915595 0.549980402 0.3099204004)
(0.4939969182 0.5499516726 0.3099204302)
(0.4919950962 0.5499526858 0.3099204302)
(0.5 0.5499485731 0.30992046)
(0.400000006 0.4540000558 0.3100732565)
(0.400000006 0.4520000517 0.3100764453)
(0.4279973209 0.4500144422 0.3100796044)
(0.5079758763 0.4506663382 0.3100785613)
(0.4720026851 0.4500370622 0.3100795746)
(0.4700047374 0.4500360191 0.3100795746)
(0.400000006 0.4702299833 0.3601014912)
(0.400000006 0.542119503 0.3468829691)
(0.400000006 0.5441445112 0.3434027135)
(0.4359909594 0.4500185549 0.3100796044)
(0.4439969361 0.4500226676 0.3100796044)
(0.495998323 0.4500493705 0.3100795448)
(0.4759991467 0.5499609113 0.3099204302)
(0.4779973328 0.549959898 0.3099204302)
(0.400000006 0.5139999986 0.3099777102)
(0.400000006 0.5431909561 0.3451815248)
(0.400000006 0.4920000136 0.310012728)
(0.400000006 0.4900000095 0.3100159168)
(0.400000006 0.5500031114 0.3119203746)
(0.400000006 0.55000633 0.3139203489)
(0.4140090644 0.4500072598 0.3100796342)
(0.400000006 0.4740000367 0.3100413978)
(0.4839915633 0.5499567986 0.3099204302)
(0.4560030699 0.4500288367 0.3100795746)
(0.4580048919 0.45002985 0.3100795746)
(0.4680067897 0.4500350058 0.3100795746)
(0.4660084248 0.4500339627 0.3100795746)
(0.5119392872 0.4514940679 0.31007725)
(0.5373900533 0.4668755829 0.3100527525)
(0.5479794741 0.486109972 0.3100221157)
(0.5195816159 0.4540409148 0.3100731969)
(0.521412909 0.4548731446 0.3100718856)
(0.531596303 0.4613012969 0.3100616336)
(0.4339915812 0.4500175118 0.3100796044)
(0.517716229 0.4532856941 0.310074389)
(0.400000006 0.5158169866 0.3674238622)
(0.400000006 0.4980947673 0.3699527681)
(0.400000006 0.4580000639 0.3100668788)
(0.400000006 0.4656118453 0.3562743366)
(0.400000006 0.5500126481 0.317920357)
(0.4399931133 0.5499793887 0.3099204004)
(0.400000006 0.4560000598 0.3100700676)
(0.400000006 0.4680000544 0.3100509644)
(0.400000006 0.4660000503 0.3100541532)
(0.400000006 0.4820000231 0.3100286722)
(0.400000006 0.4800000191 0.3100318611)
(0.400000006 0.4860000312 0.3100222945)
(0.400000006 0.4880000055 0.3100191057)
(0.400000006 0.5119999647 0.3099808991)
(0.5497936606 0.5040043592 0.3099936247)
(0.5496020913 0.5059961081 0.3099904358)
(0.5099640489 0.45105353 0.3100779653)
(0.4620084465 0.4500319064 0.3100795746)
(0.4600068629 0.4500308931 0.3100795746)
(0.5373900533 0.5331243873 0.3099472523)
(0.400000006 0.4901615977 0.3689787686)
(0.400000006 0.5000954866 0.3699495792)
(0.445998311 0.5499762893 0.3099204004)
(0.4439969361 0.5499773622 0.3099204004)
(0.4540016949 0.5499721766 0.3099204004)
(0.4520007074 0.5499732494 0.3099204004)
(0.4899931252 0.5499536991 0.3099204302)
(0.400000006 0.4940000176 0.3100095689)
(0.400000006 0.5059999824 0.3099904358)
(0.4540016949 0.4500277936 0.3100795746)
(0.400000006 0.4720000327 0.3100445867)
(0.400000006 0.4700000286 0.3100477755)
(0.4779973328 0.4500401318 0.3100795746)
(0.4799952805 0.4500411451 0.3100795746)
(0.400000006 0.4840000272 0.3100254834)
(0.400000006 0.5040000081 0.3099936247)
(0.4939969182 0.4500483572 0.3100795448)
(0.4419951141 0.5499783754 0.3099204004)
(0.4499999881 0.5499742627 0.3099204004)
(0.4479992688 0.549975276 0.3099204004)
(0.4560030699 0.5499711633 0.3099204004)
(0.4600068629 0.5499691367 0.3099204302)
(0.4620084465 0.5499680638 0.3099204302)
(0.400000006 0.5500094891 0.3159203529)
(0.4819931984 0.4500421882 0.3100795746)
(0.400000006 0.4862841964 0.3680280745)
(0.400000006 0.4882084727 0.3685557842)
(0.400000006 0.5060819983 0.3696030974)
(0.400000006 0.4843674898 0.3674743474)
(0.4319931865 0.5499835014 0.3099204004)
(0.4580048919 0.54997015 0.3099204004)
(0.5497936606 0.495995611 0.3100063801)
(0.400000006 0.4640000463 0.3100573421)
(0.4919950962 0.4500473142 0.3100795448)
(0.5331286788 0.4626058042 0.3100595474)
(0.4640090466 0.4500329494 0.3100795746)
)


// edges:

316
(
(2 3)
(4 5)
(6 7)
(8 9)
(10 11)
(12 13)
(14 15)
(16 17)
(18 19)
(20 21)
(22 23)
(24 18)
(25 26)
(27 28)
(29 30)
(31 27)
(32 33)
(34 33)
(35 12)
(36 37)
(38 39)
(40 41)
(41 35)
(42 43)
(44 45)
(46 47)
(48 4)
(49 50)
(0 40)
(51 52)
(53 20)
(54 55)
(56 57)
(58 59)
(60 46)
(61 62)
(63 64)
(65 66)
(52 67)
(68 69)
(70 71)
(59 72)
(73 74)
(75 76)
(77 78)
(79 80)
(81 51)
(82 83)
(84 24)
(85 86)
(50 87)
(88 89)
(23 90)
(91 92)
(93 94)
(74 95)
(78 96)
(97 98)
(53 99)
(6 37)
(100 64)
(71 101)
(102 103)
(104 105)
(106 104)
(97 107)
(94 108)
(109 63)
(110 100)
(98 106)
(111 112)
(113 114)
(115 77)
(116 117)
(118 117)
(119 120)
(121 122)
(16 123)
(26 124)
(125 126)
(127 128)
(114 129)
(99 123)
(130 131)
(132 17)
(116 111)
(133 134)
(135 136)
(137 30)
(124 138)
(139 140)
(141 142)
(143 144)
(131 105)
(145 146)
(22 132)
(147 121)
(148 149)
(96 109)
(8 150)
(151 144)
(152 153)
(154 42)
(155 156)
(79 118)
(72 93)
(156 34)
(157 158)
(159 160)
(161 162)
(163 164)
(165 119)
(113 36)
(155 129)
(166 28)
(167 168)
(169 168)
(170 171)
(172 56)
(173 174)
(175 174)
(176 164)
(177 178)
(179 135)
(180 181)
(182 183)
(182 184)
(48 47)
(185 186)
(186 187)
(188 189)
(190 191)
(192 193)
(194 115)
(107 195)
(196 197)
(198 199)
(200 68)
(201 202)
(195 203)
(55 204)
(205 87)
(206 89)
(207 194)
(199 196)
(208 209)
(210 65)
(211 201)
(212 130)
(197 49)
(213 88)
(214 85)
(32 215)
(216 14)
(217 207)
(218 219)
(220 142)
(221 222)
(223 62)
(224 225)
(215 166)
(210 226)
(227 183)
(137 31)
(228 229)
(230 73)
(231 69)
(232 217)
(150 233)
(234 9)
(190 149)
(235 189)
(236 237)
(238 126)
(239 232)
(240 241)
(242 243)
(108 244)
(61 221)
(11 245)
(133 246)
(247 248)
(249 250)
(226 162)
(38 251)
(231 239)
(252 60)
(253 153)
(254 255)
(5 181)
(256 45)
(257 161)
(258 39)
(255 43)
(259 213)
(103 205)
(202 200)
(260 214)
(128 261)
(262 75)
(76 187)
(13 54)
(110 263)
(0 225)
(264 220)
(265 261)
(266 267)
(268 269)
(83 160)
(102 211)
(223 7)
(270 271)
(272 145)
(273 274)
(19 90)
(251 275)
(276 277)
(272 238)
(29 278)
(86 279)
(236 165)
(280 260)
(192 262)
(148 234)
(193 230)
(281 282)
(283 284)
(84 125)
(285 91)
(167 278)
(286 240)
(146 287)
(288 191)
(0 58)
(143 172)
(169 170)
(289 290)
(224 265)
(291 292)
(290 266)
(270 293)
(294 287)
(257 233)
(175 274)
(245 289)
(235 295)
(138 286)
(282 296)
(297 298)
(297 284)
(283 299)
(300 301)
(184 188)
(66 179)
(216 112)
(171 151)
(259 198)
(288 247)
(294 25)
(302 243)
(248 277)
(303 159)
(304 305)
(306 206)
(67 95)
(209 306)
(307 304)
(81 307)
(280 208)
(204 212)
(203 185)
(3 253)
(305 279)
(44 154)
(80 218)
(249 229)
(219 308)
(141 308)
(269 10)
(241 271)
(296 264)
(299 309)
(237 134)
(70 1)
(15 101)
(298 281)
(300 309)
(252 157)
(293 268)
(122 301)
(147 120)
(178 310)
(92 246)
(285 222)
(57 173)
(263 302)
(1 242)
(291 140)
(1 21)
(303 292)
(311 267)
(273 163)
(176 310)
(311 127)
(82 312)
(295 312)
(275 227)
(152 180)
(244 136)
(313 158)
(314 250)
(314 276)
(2 177)
(313 256)
(228 139)
(254 258)
)

// * * * * * * * * * * * * * * * * * * * * * * * * * * * * * * * * * * * * * //


// ************************************************************************* //
