/*--------------------------------*- C++ -*----------------------------------*\
  =========                 |
  \\      /  F ield         | OpenFOAM: The Open Source CFD Toolbox
   \\    /   O peration     | Website:  https://openfoam.org
    \\  /    A nd           | Version:  8
     \\/     M anipulation  |
\*---------------------------------------------------------------------------*/
FoamFile
{
    version     2.0;
    format      ascii;
    class       extendedFeatureEdgeMesh;
    location    "constant/extendedFeatureEdgeMesh";
    object      mirror.extendedFeatureEdgeMesh;
}
// * * * * * * * * * * * * * * * * * * * * * * * * * * * * * * * * * * * * * //

// points

315
(
(0.400000006 0.4500000775 0.3100796342)
(0.400000006 0.5499999523 0.3099203706)
(0.5489567518 0.4900324047 0.310015887)
(0.5485078692 0.4880596697 0.3100190163)
(0.5432667732 0.4750201702 0.3100397885)
(0.5442274213 0.4767876267 0.3100369573)
(0.5040045381 0.5497943163 0.3099206984)
(0.5020059347 0.5499223471 0.3099204898)
(0.4399931133 0.4500206113 0.3100796044)
(0.4419951141 0.4500216246 0.3100796044)
(0.400000006 0.478000015 0.3100350499)
(0.400000006 0.4760000408 0.310038209)
(0.400000006 0.4500128031 0.3180796206)
(0.400000006 0.4500159919 0.3200796247)
(0.4100068808 0.5499947667 0.3099203706)
(0.4080049098 0.5499958396 0.3099203706)
(0.400000006 0.537999928 0.3099394739)
(0.400000006 0.5359999537 0.3099426627)
(0.400000006 0.523999989 0.309961766)
(0.400000006 0.5259999633 0.3099585772)
(0.400000006 0.5459999442 0.3099267483)
(0.400000006 0.5479999185 0.3099235594)
(0.400000006 0.5319999456 0.3099490404)
(0.400000006 0.5299999714 0.3099522293)
(0.400000006 0.5219999552 0.3099649549)
(0.400000006 0.5019999743 0.3099968135)
(0.400000006 0.5 0.3100000024)
(0.5300064683 0.5399311781 0.3099364042)
(0.5283846259 0.5411219001 0.3099344969)
(0.5360370874 0.5346142054 0.3099448681)
(0.5346008539 0.5360233784 0.3099426329)
(0.531596303 0.5386987329 0.3099383712)
(0.5232223868 0.5442466736 0.3099295199)
(0.521412909 0.5451268554 0.3099281192)
(0.5195816159 0.545959115 0.3099268079)
(0.400000006 0.4500096142 0.3160796165)
(0.5079758763 0.5493336916 0.3099214137)
(0.5059938431 0.5495885611 0.3099210262)
(0.5138941407 0.4520060718 0.3100764453)
(0.515814364 0.4526210129 0.3100754619)
(0.400000006 0.4500032365 0.3120796382)
(0.400000006 0.4500064254 0.3140796423)
(0.5249758363 0.4567408562 0.3100689054)
(0.5232223868 0.4557533264 0.3100704551)
(0.5283846259 0.4588780701 0.3100655079)
(0.5300064683 0.4600687921 0.3100636005)
(0.5399476886 0.469981432 0.3100478053)
(0.5411074758 0.4716256857 0.3100451827)
(0.5422235131 0.4732992351 0.3100425303)
(0.400000006 0.5249236226 0.3633058667)
(0.400000006 0.5266391635 0.36227718)
(0.400000006 0.4806183875 0.3660750091)
(0.400000006 0.478803277 0.3652235568)
(0.400000006 0.54399997 0.3099299371)
(0.400000006 0.4501202106 0.3223204315)
(0.400000006 0.4502243996 0.3245612681)
(0.5474004149 0.5158231258 0.3099747896)
(0.5479794741 0.513890028 0.3099778891)
(0.4020007253 0.4500010908 0.3100796342)
(0.404001683 0.450002104 0.3100796342)
(0.5386929512 0.4684080482 0.3100503087)
(0.495998323 0.5499505997 0.30992046)
(0.4979992807 0.5499495864 0.30992046)
(0.400000006 0.5495563149 0.3263856769)
(0.400000006 0.5498217344 0.3244026303)
(0.4240008593 0.4500123858 0.3100796044)
(0.4220026731 0.4500113726 0.3100796044)
(0.400000006 0.476995647 0.364356637)
(0.400000006 0.539834857 0.3501785398)
(0.400000006 0.5410163403 0.3485604227)
(0.4020007253 0.5499988794 0.3099203706)
(0.404001683 0.5499978662 0.3099203706)
(0.4060030878 0.4500031471 0.3100796342)
(0.400000006 0.4718500972 0.3612746596)
(0.400000006 0.4735274911 0.3623617887)
(0.400000006 0.4642192423 0.3548381627)
(0.400000006 0.4628344774 0.3533943892)
(0.400000006 0.547919333 0.3342018127)
(0.400000006 0.5484498143 0.3322777152)
(0.4240008593 0.5499876142 0.3099204004)
(0.4259991348 0.5499866009 0.3099204004)
(0.400000006 0.4824928343 0.3667750955)
(0.4899931252 0.4500463009 0.3100795448)
(0.4879915416 0.4500452578 0.3100795746)
(0.400000006 0.5199999809 0.3099681437)
(0.400000006 0.4941079021 0.3696221709)
(0.400000006 0.4921298027 0.369332701)
(0.400000006 0.5283131003 0.3611847162)
(0.400000006 0.5119786859 0.3685177863)
(0.400000006 0.5100265145 0.3689470887)
(0.400000006 0.5279999375 0.3099554181)
(0.4879915416 0.5499547124 0.3099204302)
(0.4859909415 0.5499557853 0.3099204302)
(0.4080049098 0.4500041604 0.3100796342)
(0.4100068808 0.4500052035 0.3100796342)
(0.400000006 0.4752463102 0.3633850217)
(0.400000006 0.5488915443 0.3303281367)
(0.400000006 0.4550020993 0.3417658806)
(0.400000006 0.4542206228 0.3399455547)
(0.400000006 0.5419999361 0.3099330962)
(0.400000006 0.5499187708 0.3221614957)
(0.4060030878 0.5499968529 0.3099203706)
(0.400000006 0.533030808 0.3574833274)
(0.400000006 0.5315262079 0.3588020802)
(0.400000006 0.4527764618 0.3362480998)
(0.400000006 0.4521579742 0.334354341)
(0.400000006 0.4534399211 0.3381233215)
(0.400000006 0.4559621215 0.3435431421)
(0.4120084345 0.4500062168 0.3100796342)
(0.400000006 0.5492908955 0.3283687234)
(0.400000006 0.5500158668 0.319920361)
(0.4160084128 0.5499917269 0.3099203706)
(0.4140090644 0.5499927402 0.3099203706)
(0.5099640489 0.5489464998 0.3099220395)
(0.5119392872 0.5485059023 0.3099227548)
(0.400000006 0.5473068953 0.3360975385)
(0.4180068076 0.5499907136 0.3099203706)
(0.4200047255 0.5499896407 0.3099203706)
(0.4220026731 0.5499886274 0.3099203706)
(0.4720026851 0.5499629378 0.3099204302)
(0.4700047374 0.5499639511 0.3099204302)
(0.4660084248 0.5499660373 0.3099204302)
(0.4640090466 0.5499670506 0.3099204302)
(0.400000006 0.5399999619 0.309936285)
(0.400000006 0.4979999959 0.3100031912)
(0.400000006 0.5180000067 0.3099713326)
(0.400000006 0.5159999728 0.3099745214)
(0.400000006 0.4620000422 0.3100605309)
(0.400000006 0.4600000381 0.3100637197)
(0.5138941407 0.5479938984 0.3099235594)
(0.400000006 0.4511734545 0.3304837644)
(0.400000006 0.4516213834 0.3324319124)
(0.400000006 0.5339999795 0.3099458516)
(0.4819931984 0.5499578118 0.3099204302)
(0.4799952805 0.5499588251 0.3099204302)
(0.4180068076 0.4500093162 0.3100796044)
(0.4160084128 0.4500082731 0.3100796342)
(0.5331286788 0.537394166 0.3099404573)
(0.400000006 0.4959999919 0.3100063801)
(0.4740008712 0.4500380754 0.3100795746)
(0.4759991467 0.4500390887 0.3100795746)
(0.4339915812 0.5499824882 0.3099204004)
(0.4359909594 0.5499814749 0.3099204004)
(0.545956254 0.5195798874 0.3099688292)
(0.5451416969 0.5214201212 0.3099658787)
(0.400000006 0.5099999905 0.3099840879)
(0.400000006 0.5080000162 0.309987247)
(0.4680067897 0.549965024 0.3099204302)
(0.445998311 0.4500236809 0.3100796044)
(0.4479992688 0.450024724 0.3100796044)
(0.4379915595 0.4500195682 0.3100796044)
(0.5442274213 0.5232123733 0.3099630177)
(0.5467051864 0.4822874963 0.3100281954)
(0.5474004149 0.4841768742 0.3100252151)
(0.5266979933 0.4577802122 0.3100672364)
(0.515814364 0.5473790169 0.3099245429)
(0.517716229 0.5467143059 0.309925586)
(0.5360370874 0.4653857946 0.3100551367)
(0.5346008539 0.4639766216 0.3100573719)
(0.4839915633 0.4500432014 0.3100795746)
(0.4859909415 0.4500442445 0.3100795746)
(0.4319931865 0.4500164986 0.3100796044)
(0.4299952686 0.4500154853 0.3100796044)
(0.5499100685 0.5020041466 0.3099968135)
(0.5499743223 0.5 0.3100000024)
(0.4740008712 0.5499619246 0.3099204302)
(0.5266979933 0.5422198176 0.3099327683)
(0.5386929512 0.5315919518 0.3099496961)
(0.5399476886 0.530018568 0.3099521995)
(0.5411074758 0.5283743143 0.3099548221)
(0.5422235131 0.5267007351 0.3099574745)
(0.5432667732 0.5249798298 0.3099602163)
(0.5467051864 0.5177124739 0.3099717796)
(0.5485078096 0.5119403601 0.3099809885)
(0.5489567518 0.5099676251 0.3099841177)
(0.5493083596 0.5079717636 0.3099873066)
(0.5499100685 0.4979958832 0.3100031912)
(0.5493083596 0.4920282066 0.3100126982)
(0.5496020913 0.4940038621 0.3100095391)
(0.4200047255 0.4500103295 0.3100796044)
(0.545956254 0.4804200828 0.3100311756)
(0.5451416969 0.4785798788 0.310034126)
(0.5040045381 0.4502056837 0.3100793064)
(0.5059938431 0.4504114389 0.3100789785)
(0.5020059347 0.4500776827 0.310079515)
(0.400000006 0.4591066837 0.3486908376)
(0.400000006 0.4602932334 0.3503051102)
(0.400000006 0.4615432024 0.3518674672)
(0.5 0.4500514269 0.3100795448)
(0.4979992807 0.4500504136 0.3100795448)
(0.4499999881 0.4500257373 0.3100796044)
(0.4520007074 0.4500267804 0.3100796044)
(0.400000006 0.4671206176 0.3575882912)
(0.400000006 0.4686294198 0.3589022756)
(0.400000006 0.5466493964 0.3379748464)
(0.400000006 0.456921339 0.3453189135)
(0.400000006 0.5213729739 0.3651555479)
(0.400000006 0.5231776237 0.3642829955)
(0.400000006 0.5176889896 0.3667186499)
(0.400000006 0.5195608139 0.3660127521)
(0.400000006 0.5385899544 0.3517448008)
(0.400000006 0.5359233618 0.3547239602)
(0.400000006 0.5373035669 0.3532758057)
(0.400000006 0.4579981863 0.3470169008)
(0.400000006 0.4504961371 0.3265434504)
(0.400000006 0.5299294591 0.3600064218)
(0.400000006 0.508059144 0.3693073392)
(0.400000006 0.545874536 0.339799583)
(0.400000006 0.5020961761 0.3699463904)
(0.400000006 0.5040899515 0.3697855771)
(0.4259991348 0.4500134289 0.3100796044)
(0.400000006 0.534535408 0.3561645746)
(0.400000006 0.4507678449 0.3285256326)
(0.400000006 0.5139016509 0.3679838181)
(0.400000006 0.4961004853 0.3697983027)
(0.5249758363 0.5432591438 0.3099310994)
(0.4120084345 0.5499937534 0.3099203706)
(0.400000006 0.5450988412 0.3416224122)
(0.4279973209 0.549985528 0.3099204004)
(0.4299952686 0.5499845147 0.3099204004)
(0.4379915595 0.549980402 0.3099204004)
(0.4939969182 0.5499516726 0.3099204302)
(0.4919950962 0.5499526858 0.3099204302)
(0.5 0.5499485731 0.30992046)
(0.400000006 0.4540000558 0.3100732565)
(0.400000006 0.4520000517 0.3100764453)
(0.4279973209 0.4500144422 0.3100796044)
(0.5079758763 0.4506663382 0.3100785613)
(0.4720026851 0.4500370622 0.3100795746)
(0.4700047374 0.4500360191 0.3100795746)
(0.400000006 0.4702299833 0.3601014912)
(0.400000006 0.542119503 0.3468829691)
(0.400000006 0.5441445112 0.3434027135)
(0.4359909594 0.4500185549 0.3100796044)
(0.4439969361 0.4500226676 0.3100796044)
(0.495998323 0.4500493705 0.3100795448)
(0.4759991467 0.5499609113 0.3099204302)
(0.4779973328 0.549959898 0.3099204302)
(0.400000006 0.5139999986 0.3099777102)
(0.400000006 0.5431909561 0.3451815248)
(0.400000006 0.4920000136 0.310012728)
(0.400000006 0.4900000095 0.3100159168)
(0.400000006 0.5500031114 0.3119203746)
(0.400000006 0.55000633 0.3139203489)
(0.4140090644 0.4500072598 0.3100796342)
(0.400000006 0.4740000367 0.3100413978)
(0.4839915633 0.5499567986 0.3099204302)
(0.4560030699 0.4500288367 0.3100795746)
(0.4580048919 0.45002985 0.3100795746)
(0.4680067897 0.4500350058 0.3100795746)
(0.4660084248 0.4500339627 0.3100795746)
(0.5119392872 0.4514940679 0.31007725)
(0.5373900533 0.4668755829 0.3100527525)
(0.5479794741 0.486109972 0.3100221157)
(0.5195816159 0.4540409148 0.3100731969)
(0.521412909 0.4548731446 0.3100718856)
(0.531596303 0.4613012969 0.3100616336)
(0.4339915812 0.4500175118 0.3100796044)
(0.517716229 0.4532856941 0.310074389)
(0.400000006 0.5158169866 0.3674238622)
(0.400000006 0.4980947673 0.3699527681)
(0.400000006 0.4580000639 0.3100668788)
(0.400000006 0.4656118453 0.3562743366)
(0.400000006 0.5500126481 0.317920357)
(0.4399931133 0.5499793887 0.3099204004)
(0.400000006 0.4560000598 0.3100700676)
(0.400000006 0.4680000544 0.3100509644)
(0.400000006 0.4660000503 0.3100541532)
(0.400000006 0.4820000231 0.3100286722)
(0.400000006 0.4800000191 0.3100318611)
(0.400000006 0.4860000312 0.3100222945)
(0.400000006 0.4880000055 0.3100191057)
(0.400000006 0.5119999647 0.3099808991)
(0.5497936606 0.5040043592 0.3099936247)
(0.5496020913 0.5059961081 0.3099904358)
(0.5099640489 0.45105353 0.3100779653)
(0.4620084465 0.4500319064 0.3100795746)
(0.4600068629 0.4500308931 0.3100795746)
(0.5373900533 0.5331243873 0.3099472523)
(0.400000006 0.4901615977 0.3689787686)
(0.400000006 0.5000954866 0.3699495792)
(0.445998311 0.5499762893 0.3099204004)
(0.4439969361 0.5499773622 0.3099204004)
(0.4540016949 0.5499721766 0.3099204004)
(0.4520007074 0.5499732494 0.3099204004)
(0.4899931252 0.5499536991 0.3099204302)
(0.400000006 0.4940000176 0.3100095689)
(0.400000006 0.5059999824 0.3099904358)
(0.4540016949 0.4500277936 0.3100795746)
(0.400000006 0.4720000327 0.3100445867)
(0.400000006 0.4700000286 0.3100477755)
(0.4779973328 0.4500401318 0.3100795746)
(0.4799952805 0.4500411451 0.3100795746)
(0.400000006 0.4840000272 0.3100254834)
(0.400000006 0.5040000081 0.3099936247)
(0.4939969182 0.4500483572 0.3100795448)
(0.4419951141 0.5499783754 0.3099204004)
(0.4499999881 0.5499742627 0.3099204004)
(0.4479992688 0.549975276 0.3099204004)
(0.4560030699 0.5499711633 0.3099204004)
(0.4600068629 0.5499691367 0.3099204302)
(0.4620084465 0.5499680638 0.3099204302)
(0.400000006 0.5500094891 0.3159203529)
(0.4819931984 0.4500421882 0.3100795746)
(0.400000006 0.4862841964 0.3680280745)
(0.400000006 0.4882084727 0.3685557842)
(0.400000006 0.5060819983 0.3696030974)
(0.400000006 0.4843674898 0.3674743474)
(0.4319931865 0.5499835014 0.3099204004)
(0.4580048919 0.54997015 0.3099204004)
(0.5497936606 0.495995611 0.3100063801)
(0.400000006 0.4640000463 0.3100573421)
(0.4919950962 0.4500473142 0.3100795448)
(0.5331286788 0.4626058042 0.3100595474)
(0.4640090466 0.4500329494 0.3100795746)
)

// edges

316
(
(2 3)
(4 5)
(6 7)
(8 9)
(10 11)
(12 13)
(14 15)
(16 17)
(18 19)
(20 21)
(22 23)
(24 18)
(25 26)
(27 28)
(29 30)
(31 27)
(32 33)
(34 33)
(35 12)
(36 37)
(38 39)
(40 41)
(41 35)
(42 43)
(44 45)
(46 47)
(48 4)
(49 50)
(0 40)
(51 52)
(53 20)
(54 55)
(56 57)
(58 59)
(60 46)
(61 62)
(63 64)
(65 66)
(52 67)
(68 69)
(70 71)
(59 72)
(73 74)
(75 76)
(77 78)
(79 80)
(81 51)
(82 83)
(84 24)
(85 86)
(50 87)
(88 89)
(23 90)
(91 92)
(93 94)
(74 95)
(78 96)
(97 98)
(53 99)
(6 37)
(100 64)
(71 101)
(102 103)
(104 105)
(106 104)
(97 107)
(94 108)
(109 63)
(110 100)
(98 106)
(111 112)
(113 114)
(115 77)
(116 117)
(118 117)
(119 120)
(121 122)
(16 123)
(26 124)
(125 126)
(127 128)
(114 129)
(99 123)
(130 131)
(132 17)
(116 111)
(133 134)
(135 136)
(137 30)
(124 138)
(139 140)
(141 142)
(143 144)
(131 105)
(145 146)
(22 132)
(147 121)
(148 149)
(96 109)
(8 150)
(151 144)
(152 153)
(154 42)
(155 156)
(79 118)
(72 93)
(156 34)
(157 158)
(159 160)
(161 162)
(163 164)
(165 119)
(113 36)
(155 129)
(166 28)
(167 168)
(169 168)
(170 171)
(172 56)
(173 174)
(175 174)
(176 164)
(177 178)
(179 135)
(180 181)
(182 183)
(182 184)
(48 47)
(185 186)
(186 187)
(188 189)
(190 191)
(192 193)
(194 115)
(107 195)
(196 197)
(198 199)
(200 68)
(201 202)
(195 203)
(55 204)
(205 87)
(206 89)
(207 194)
(199 196)
(208 209)
(210 65)
(211 201)
(212 130)
(197 49)
(213 88)
(214 85)
(32 215)
(216 14)
(217 207)
(218 219)
(220 142)
(221 222)
(223 62)
(224 225)
(215 166)
(210 226)
(227 183)
(137 31)
(228 229)
(230 73)
(231 69)
(232 217)
(150 233)
(234 9)
(190 149)
(235 189)
(236 237)
(238 126)
(239 232)
(240 241)
(242 243)
(108 244)
(61 221)
(11 245)
(133 246)
(247 248)
(249 250)
(226 162)
(38 251)
(231 239)
(252 60)
(253 153)
(254 255)
(5 181)
(256 45)
(257 161)
(258 39)
(255 43)
(259 213)
(103 205)
(202 200)
(260 214)
(128 261)
(262 75)
(76 187)
(13 54)
(110 263)
(0 225)
(264 220)
(265 261)
(266 267)
(268 269)
(83 160)
(102 211)
(223 7)
(270 271)
(272 145)
(273 274)
(19 90)
(251 275)
(276 277)
(272 238)
(29 278)
(86 279)
(236 165)
(280 260)
(192 262)
(148 234)
(193 230)
(281 282)
(283 284)
(84 125)
(285 91)
(167 278)
(286 240)
(146 287)
(288 191)
(0 58)
(143 172)
(169 170)
(289 290)
(224 265)
(291 292)
(290 266)
(270 293)
(294 287)
(257 233)
(175 274)
(245 289)
(235 295)
(138 286)
(282 296)
(297 298)
(297 284)
(283 299)
(300 301)
(184 188)
(66 179)
(216 112)
(171 151)
(259 198)
(288 247)
(294 25)
(302 243)
(248 277)
(303 159)
(304 305)
(306 206)
(67 95)
(209 306)
(307 304)
(81 307)
(280 208)
(204 212)
(203 185)
(3 253)
(305 279)
(44 154)
(80 218)
(249 229)
(219 308)
(141 308)
(269 10)
(241 271)
(296 264)
(299 309)
(237 134)
(70 1)
(15 101)
(298 281)
(300 309)
(252 157)
(293 268)
(122 301)
(147 120)
(178 310)
(92 246)
(285 222)
(57 173)
(263 302)
(1 242)
(291 140)
(1 21)
(303 292)
(311 267)
(273 163)
(176 310)
(311 127)
(82 312)
(295 312)
(275 227)
(152 180)
(244 136)
(313 158)
(314 250)
(314 276)
(2 177)
(313 256)
(228 139)
(254 258)
)

// concaveStart mixedStart nonFeatureStart
2 2 2
// internalStart flatStart openStart multipleStart
316 316 316 316
// normals

632
(
(4.055653482e-06 -0.001587167326 -0.9999987404)
(0.9750293346 -0.221845319 0.01012181753)
(0.8785980157 -0.4775425517 -0.004317185348)
(-8.266838613e-06 -0.001597366295 -0.9999987242)
(0.06392916686 0.9979535345 -0.001343363406)
(2.23098905e-06 -0.00159459416 -0.9999987286)
(0.0005061324291 -0.9999985898 0.001601302468)
(8.127648368e-07 -0.001605832079 -0.9999987107)
(-1 0 -0)
(-2.400571434e-06 -0.001579541452 -0.9999987525)
(-1 0 -0)
(0.0005153154738 -0.9999985961 0.001594418778)
(0.0005359129056 0.9999985953 -0.001588133663)
(-8.555827567e-07 -0.001596493658 -0.9999987256)
(-1 0 0)
(-1.697567674e-06 -0.001594442749 -0.9999987289)
(8.884706686e-06 -0.001594442749 -0.9999987288)
(-1 0 0)
(-1.209960181e-05 -0.001594442749 -0.9999987288)
(-1 0 0)
(-1 0 0)
(-6.443903045e-06 -0.001594442749 -0.9999987289)
(1.055187531e-05 -0.001594395232 -0.9999987289)
(-1 0 0)
(-1 0 -0)
(-5.855271607e-06 -0.001594442749 -0.9999987289)
(0.591801741 0.8060643363 -0.005566431951)
(6.152430049e-06 -0.001593460067 -0.9999987304)
(0.700345387 0.7137861657 -0.005064436413)
(1.360335991e-06 -0.001584771773 -0.9999987442)
(0.6126584376 0.7903067516 -0.008054635942)
(8.212601537e-06 -0.001585380075 -0.9999987433)
(0.437423862 0.8992553538 -0.0004167094365)
(5.978944089e-07 -0.001590155036 -0.9999987357)
(-9.152100116e-06 -0.001595728791 -0.9999987268)
(0.4137426284 0.9103891741 -0.002930733153)
(-1 0 -0)
(0.0005110108868 -0.9999985983 0.001594418782)
(0.1275399008 0.9918315764 -0.001922964004)
(-9.759535766e-06 -0.001596006914 -0.9999987263)
(0.3049846812 -0.9523534732 -0.00268447527)
(-7.395683082e-07 -0.001596990698 -0.9999987248)
(-1 -0 0)
(0.0005217692566 -0.9999985928 0.001594418773)
(-1 0 -0)
(0.0005217715782 -0.9999985928 0.001594442532)
(1.175512167e-05 -0.001590160508 -0.9999987356)
(0.4907200583 -0.871316192 0.001384907845)
(0.5918037245 -0.8060793358 -0.002110933521)
(-1.719306871e-06 -0.001599498259 -0.9999987208)
(0.8171700846 -0.5763954036 0.001179599047)
(-3.383187727e-06 -0.001592623582 -0.9999987318)
(0.8551388423 -0.5183983677 0.0008322678395)
(-1.042215468e-06 -0.001592577704 -0.9999987318)
(-1 0 0)
(0.0002518338483 0.5142612832 0.8576335285)
(-1 -0 0)
(0.0005238982932 -0.9999986153 0.001579517698)
(-0.001005170126 -0.4246869059 0.9053397272)
(-1 0 0)
(-6.647530842e-06 -0.001594442749 -0.9999987289)
(-1 0 0)
(-1 0 0)
(0.004105680449 -0.9989124123 0.04644497664)
(1.049334025e-05 -0.00160020938 -0.9999987196)
(0.9579199695 0.2869556132 0.006768169285)
(0.0005063962744 -0.9999985958 0.001597493773)
(8.073564779e-07 -0.001594315332 -0.9999987291)
(0.7818298588 -0.6234877093 0.002268954629)
(3.193646365e-06 -0.001593634736 -0.9999987302)
(-8.054427801e-07 -0.001590536285 -0.9999987351)
(0.0005063962676 0.9999985824 -0.001605829894)
(-1 0 0)
(0.0003350106221 0.9911613724 0.1326613042)
(8.064114523e-07 -0.001590243384 -0.9999987356)
(0.0005070986791 -0.9999985953 0.00159759766)
(0.0003158406833 -0.4324299372 0.9016674829)
(-1 0 0)
(-1 0 -0)
(-0.002329542613 0.8076235212 0.5896938369)
(-8.040564649e-07 -0.00158779868 -0.9999987394)
(0.0005063962775 0.999998602 -0.001593616135)
(0.0005211738412 -0.9999985851 0.001599400051)
(8.376756804e-07 -0.001607284228 -0.9999987083)
(-1 0 0)
(-0.004371317262 -0.5438653713 0.8391610987)
(0.0002055768909 -0.7217013036 0.692204584)
(-1 0 -0)
(-1 0 -0)
(-0.002951478693 0.9640274792 0.2657862075)
(-8.029903557e-07 -0.001583567834 -0.9999987462)
(0.0005070760154 0.9999986443 -0.001566607851)
(0.0001402394298 -0.3498826162 0.9367935393)
(-1 0 0)
(-1.40518016e-05 -0.001607188831 -0.9999987084)
(0.0005211510739 -0.9999985876 0.001597860748)
(2.757173412e-06 -0.001594442749 -0.9999987289)
(-1 0 0)
(-0.008169442121 -0.1447904326 0.9894286184)
(-1 0 -0)
(-1 0 0)
(-0.01593763202 0.5464671214 0.8373288942)
(-0.003806687376 0.2147766024 0.9766557839)
(-1 -0 0)
(-1 0 -0)
(-1.116879325e-05 -0.001594395232 -0.9999987289)
(0.0005362801347 0.9999985878 -0.001592739695)
(-8.582239221e-07 -0.00160032538 -0.9999987195)
(0.0005210264232 -0.9999985708 0.001608412521)
(8.317573746e-07 -0.001596380047 -0.9999987258)
(-1 0 0)
(0.000670634911 -0.511530367 0.8592649381)
(-1 0 -0)
(0.0004602462637 0.975279136 0.2209760055)
(0.002249301753 -0.9188981899 0.3944883487)
(-1 0 -0)
(-1 0 -0)
(-3.139328502e-06 -0.001579494379 -0.9999987526)
(6.945194051e-08 -0.001592605755 -0.9999987318)
(0.1028819908 0.994691864 -0.001841664945)
(0.004524194013 0.9990537384 0.04325690123)
(-1 0 -0)
(-8.039848526e-07 -0.001588011964 -0.9999987391)
(0.0005062831675 0.9999985998 -0.001595004164)
(0.0002202499839 0.6591349895 0.752024612)
(-1 -0 0)
(0.0002008845348 -0.9505880497 0.3104550201)
(-1 0 -0)
(-0.002694854039 -0.9427316067 0.333541385)
(-1 0 -0)
(-1 -0 0)
(0.001194274477 -0.8798424622 0.4752639429)
(0.0005062454705 -0.9999985896 0.001601402773)
(8.071705168e-07 -0.001594422914 -0.9999987289)
(-1 0 0)
(0.0003543473738 0.9911613658 0.1326613033)
(0.0005138281868 0.9990626825 0.0432838593)
(-1 0 -0)
(-0.0002680406199 -0.9191916454 0.3938104204)
(-1 0 -0)
(0.0005068038949 0.9999986146 -0.001585559138)
(-8.169478175e-07 -0.001611958183 -0.9999987008)
(5.582666891e-06 -0.001598346953 -0.9999987226)
(0.2177095593 0.976004771 -0.004151483057)
(-1 0 -0)
(0.0004477555673 0.9515744871 0.3074179486)
(-8.567786273e-07 -0.0015954884 -0.9999987272)
(0.0005370000891 0.9999985827 -0.001595714711)
(0.0005071591987 0.9999986083 -0.001589413821)
(-8.154063057e-07 -0.001607789375 -0.9999987075)
(0.0005071592034 0.9999986174 -0.001583644306)
(-8.10112104e-07 -0.001597350454 -0.9999987242)
(0.0005067963244 0.9999985826 -0.00160559527)
(-8.038456842e-07 -0.00158612939 -0.9999987421)
(1.181177049e-05 -0.001594395232 -0.9999987289)
(-1 0 0)
(-1 0 -0)
(-6.514913706e-06 -0.00159441899 -0.9999987289)
(-1 0 0)
(-1.193847989e-06 -0.001594395232 -0.999998729)
(-1 0 -0)
(-1.518822348e-05 -0.00159441899 -0.9999987288)
(-6.992366344e-06 -0.001598290034 -0.9999987227)
(0.2533659986 0.9673667949 0.002674866231)
(-1 0 0)
(1.044092572e-07 -0.001594442749 -0.9999987289)
(-1 0 0)
(0.002026158124 -0.974569044 0.2240782746)
(-6.739047252e-06 -0.001594442749 -0.9999987289)
(-1 0 -0)
(0.0005070457533 0.9999986172 -0.001583819893)
(-8.136617319e-07 -0.001604708454 -0.9999987125)
(0.0005071667385 0.9999985584 -0.001620499354)
(-8.050884506e-07 -0.001587421313 -0.99999874)
(-1.407678912e-05 -0.001602274909 -0.9999987163)
(0.0005219825678 -0.9999985996 0.001590102808)
(-3.695532286e-06 -0.001591061386 -0.9999987343)
(0.6814562815 0.7318588226 1.3794915e-05)
(-1 0 -0)
(-1.06621815e-06 -0.00159441899 -0.9999987289)
(0.0005070759984 -0.9999986108 0.001587826315)
(8.097113037e-07 -0.001596822136 -0.9999987251)
(-8.097548288e-07 -0.001597789175 -0.9999987235)
(0.0005067963569 0.9999986468 -0.001565089573)
(0.9144236414 0.404758451 -2.155606665e-05)
(-1.663167681e-07 -0.001603362352 -0.9999987146)
(-1 0 0)
(-0.001262127161 -0.9631826767 0.2688448221)
(-1 0 -0)
(1.082675696e-05 -0.001579541452 -0.9999987525)
(-7.444181821e-06 -0.001594395232 -0.9999987289)
(-1 0 0)
(0.0005070533114 0.99999861 -0.001588348576)
(-8.068362368e-07 -0.001591223442 -0.999998734)
(0.0005212902733 -0.9999985783 0.001603632725)
(8.307945298e-07 -0.001593725015 -0.99999873)
(-1 0 0)
(-0.002271486071 0.9798533412 0.1997054584)
(8.283792454e-07 -0.0015895651 -0.9999987366)
(0.0005211350471 -0.999998597 0.001591954428)
(-1.363064738e-05 -0.00160327975 -0.9999987147)
(0.890788674 0.4544111776 -0.002453567236)
(0.9384400385 -0.3452992346 0.009936431998)
(9.819139942e-06 -0.001580972852 -0.9999987502)
(-5.16518552e-06 -0.001597174284 -0.9999987245)
(0.5167035385 -0.8561560497 -0.003777803972)
(-8.181733942e-06 -0.001592632763 -0.9999987317)
(0.3299336371 0.9439975719 -0.003518436145)
(0.0005071225849 0.9999985864 -0.001603138615)
(1.411191211e-05 -0.001583037169 -0.9999987469)
(0.0005061776351 -0.999998581 0.001606813008)
(8.135709174e-07 -0.001607281133 -0.9999987083)
(3.985949965e-06 -0.00160814753 -0.9999987069)
(0.3752586104 0.9269192452 -0.001299271644)
(2.154996394e-06 -0.001588354602 -0.9999987386)
(0.7003476048 -0.7137898706 0.004153678411)
(0.0005217021095 -0.9999986035 0.001587739719)
(8.39107113e-07 -0.001608400514 -0.9999987065)
(8.051335047e-07 -0.001587510148 -0.9999987399)
(0.0005071667614 -0.9999986034 0.001592470674)
(5.792448349e-06 -0.001590937665 -0.9999987344)
(0.9994864485 0.03204414362 0.0001101595245)
(0.0005070986904 0.9999986175 -0.0015836485)
(-8.082098977e-07 -0.001593789918 -0.9999987299)
(0.1911564136 0.9815595613 -0.0002305893583)
(2.285148757e-06 -0.001604643328 -0.9999987126)
(0.3049603582 0.9523612233 -0.002698185414)
(3.450622955e-06 -0.00158867913 -0.999998738)
(-1.218547427e-05 -0.001593093136 -0.999998731)
(0.5455481977 0.8380787051 0.001117165581)
(4.316489987e-06 -0.00158764559 -0.9999987397)
(0.7818304462 0.6234907788 -0.0006341684408)
(0.8171652561 0.5763979117 0.002528179413)
(2.67998182e-06 -0.001593119592 -0.999998731)
(4.836889431e-06 -0.001590304854 -0.9999987355)
(0.8550936958 0.5183956195 0.008986277198)
(-1.310851935e-05 -0.001597981995 -0.9999987231)
(0.9384796555 0.3453342984 -0.0003982402688)
(2.981885268e-06 -0.001585565896 -0.999998743)
(0.9750378313 0.2219049936 0.007707222542)
(0.9848341778 0.1734975057 0.000507709674)
(6.508325045e-06 -0.001596581729 -0.9999987254)
(0.9994503298 -0.03202967924 0.008552069833)
(-4.423268908e-06 -0.00159100522 -0.9999987343)
(0.9891265914 -0.1470561415 0.001754256312)
(4.30213937e-06 -0.00159962388 -0.9999987206)
(7.989112063e-07 -0.001575241422 -0.9999987593)
(0.0005071667531 -0.9999985871 0.001602697393)
(-6.887192206e-06 -0.001600266126 -0.9999987195)
(0.9144208609 -0.4047610362 0.001729953628)
(0.102881182 -0.9946907844 -0.002388691905)
(9.336967148e-08 -0.001594179961 -0.9999987293)
(-2.263200233e-06 -0.001594462484 -0.9999987288)
(0.06391434834 -0.9979543102 0.001466565797)
(2.957390912e-06 -0.001586869136 -0.9999987409)
(0.8319710534 -0.5548174102 -0.001344511649)
(-1 0 0)
(-0.01268493482 -0.8056851487 0.5922081843)
(-1 0 0)
(0.0005168858699 -0.7808483605 0.624720394)
(8.088648584e-07 -0.001597103663 -0.9999987246)
(0.0005064566228 -0.9999986018 0.001593716424)
(0.0005213523995 -0.9999985895 0.001596616593)
(8.311144325e-07 -0.00159414872 -0.9999987293)
(-1 0 0)
(0.001109393166 -0.6567423607 0.7541142095)
(-1 0 0)
(-0.005873840525 0.9437729137 0.3305422597)
(-1 -0 0)
(0.0003078663337 -0.8798429957 0.4752643561)
(-1 0 0)
(0.0003459996859 0.4352919631 0.9002892797)
(-1 0 0)
(0.001707763584 0.3528594009 0.9356747975)
(-1 0 0)
(0.0004715413463 0.7828412138 0.6222213526)
(-1 0 0)
(0.001695855082 0.7238845986 0.6899189894)
(-1 -0 0)
(-0.002646218076 -0.8444887805 0.5355667065)
(-1 -0 0)
(0.005984322476 -0.9907158215 0.1358173364)
(0.0003511360434 0.5890740321 0.8080789945)
(-1 -0 0)
(-1 0 0)
(0.001129798905 0.1801177565 0.9836444059)
(-1 0 0)
(0.0001231371814 0.9204493836 0.3908617622)
(-1 0 0)
(-0.004602297949 0.4275979911 0.9039572871)
(-1 0 0)
(-0.002620370655 0.08039632934 0.9967595316)
(8.232524618e-07 -0.001577140023 -0.9999987563)
(0.0005219899885 -0.999998592 0.001594820948)
(-1 0 0)
(-0.001322430921 0.7201458768 0.6938214232)
(-1 -0 0)
(-0.000730730271 -0.979212617 0.202835196)
(-1 0 0)
(-0.004986180206 0.4883573444 0.8726294988)
(0.0003247377855 0.2675560472 0.9635422441)
(-1 -0 0)
(0.001079750817 -0.08805028841 0.9961154455)
(-1 0 0)
(-9.8597319e-07 -0.001601217491 -0.999998718)
(0.4907199696 0.871317033 -0.0007344456201)
(0.0005062454609 0.9999985706 -0.001613252872)
(-8.117058874e-07 -0.001603381738 -0.9999987146)
(-1 0 0)
(0.0004333831128 0.9201503975 0.3915648837)
(-8.047437356e-07 -0.001586765295 -0.9999987411)
(0.0005071591619 0.9999985356 -0.001634479489)
(0.0005362801296 0.9999985782 -0.001598726168)
(-8.543676526e-07 -0.001593134615 -0.999998731)
(0.0005061776414 0.9999985933 -0.001599132773)
(-8.129200358e-07 -0.001605995259 -0.9999987104)
(0.0005064566379 0.9999986315 -0.001574958625)
(-8.020450077e-07 -0.001583637868 -0.999998746)
(-1 0 0)
(3.359828543e-06 -0.00159441899 -0.9999987289)
(7.897262927e-06 -0.001592693059 -0.9999987316)
(0.5166984807 0.8561606977 -0.003397012067)
(0.0005070986866 -0.99999861 0.00158831973)
(8.077045961e-07 -0.001592793464 -0.9999987315)
(-5.414986883e-06 -0.001594744894 -0.9999987284)
(0.1275546008 -0.9918297308 0.001899736749)
(0.648239337 0.7614357043 -0.00119585712)
(1.010768801e-05 -0.001587248017 -0.9999987403)
(8.26815413e-07 -0.001583705865 -0.9999987459)
(0.0005220756451 -0.9999986072 0.001585287012)
(-1 0 0)
(0.000219589497 -0.5865040685 0.809946251)
(0.0005396344045 0.8355141623 0.5494686464)
(-1 0 0)
(-1 0 0)
(0.000476401703 0.881356793 0.4724510308)
(8.083648796e-07 -0.001596021353 -0.9999987264)
(0.0005064867935 -0.9999985871 0.001602897193)
(8.367462321e-07 -0.001605835554 -0.9999987106)
(0.0005210652232 -0.9999986013 0.001589314287)
(8.071511242e-07 -0.001593719895 -0.99999873)
(0.0005064566301 -0.9999986161 0.001584688523)
(0.0005212902829 -0.9999985967 0.001592146931)
(8.305752707e-07 -0.001593304407 -0.9999987307)
(-8.036067053e-07 -0.001584712423 -0.9999987443)
(0.0005070986878 0.9999986124 -0.001586859855)
(-2.740525637e-06 -0.001594442749 -0.9999987289)
(-1 0 0)
(-1 0 0)
(0.0004836154868 0.8813518557 0.4724602338)
(-1 0 0)
(4.973289592e-06 -0.00159441899 -0.9999987289)
(0.0005381188801 0.9999985602 -0.001609343812)
(-1 0 0)
(0.0005213756972 -0.9999985872 0.001598064525)
(8.389335792e-07 -0.001609074605 -0.9999987054)
(0.0005360879816 0.9999986171 -0.001574275143)
(1.40387695e-05 -0.001589198118 -0.9999987371)
(-1 0 -0)