/*--------------------------------*- C++ -*----------------------------------*\
  =========                 |
  \\      /  F ield         | OpenFOAM: The Open Source CFD Toolbox
   \\    /   O peration     | Website:  https://openfoam.org
    \\  /    A nd           | Version:  8
     \\/     M anipulation  |
\*---------------------------------------------------------------------------*/
FoamFile
{
    version     2.0;
    format      ascii;
    class       polyBoundaryMesh;
    location    "constant/polyMesh";
    object      boundary;
}
// * * * * * * * * * * * * * * * * * * * * * * * * * * * * * * * * * * * * * //

6
(
    walls
    {
        type            wall;
        inGroups        List<word> 1(wall);
        nFaces          4227;
        startFace       197783;
    }
    region0_to_wallFilmRegion_wallFilmFace
    {
        type            mappedWall;
        inGroups        List<word> 
2
(
wall
mappedPatch
)
;
        nFaces          776;
        startFace       202010;
        sampleMode      nearestPatchFace;
        sampleRegion    wallFilmRegion;
        samplePatch     region0_to_wallFilmRegion_wallFilmFace;
        offsetMode      nonuniform;
        offsets         nonuniform List<vector> 
776
(
(0 0 0)
(0 0 0)
(0 0 0)
(0 -2.775557562e-17 0)
(0 0 0)
(0 0 0)
(0 0 0)
(0 0 0)
(0 0 0)
(0 0 0)
(0 0 0)
(0 0 0)
(0 0 0)
(0 0 0)
(0 0 0)
(0 0 0)
(0 0 0)
(0 -5.551115123e-17 0)
(0 0 0)
(0 0 0)
(0 0 0)
(0 0 0)
(0 0 0)
(0 0 0)
(0 0 0)
(0 1.110223025e-16 0)
(0 0 0)
(0 5.551115123e-17 0)
(0 5.551115123e-17 0)
(0 0 0)
(2.775557562e-17 2.775557562e-17 0)
(-5.551115123e-17 0 0)
(-5.551115123e-17 -5.551115123e-17 0)
(-2.775557562e-17 -2.775557562e-17 0)
(-5.551115123e-17 0 0)
(-5.551115123e-17 -1.110223025e-16 0)
(-5.551115123e-17 -5.551115123e-17 0)
(-5.551115123e-17 0 0)
(-2.775557562e-17 0 0)
(-5.551115123e-17 -5.551115123e-17 0)
(-5.551115123e-17 0 0)
(-5.551115123e-17 0 0)
(-5.551115123e-17 0 0)
(-5.551115123e-17 -5.551115123e-17 0)
(-2.775557562e-17 5.551115123e-17 0)
(-5.551115123e-17 0 0)
(-5.551115123e-17 0 0)
(-5.551115123e-17 0 0)
(-5.551115123e-17 0 0)
(-5.551115123e-17 0 0)
(-2.775557562e-17 -5.551115123e-17 0)
(-5.551115123e-17 0 0)
(-5.551115123e-17 0 0)
(-5.551115123e-17 0 0)
(-5.551115123e-17 0 0)
(-5.551115123e-17 0 0)
(0 5.551115123e-17 0)
(-5.551115123e-17 0 0)
(-5.551115123e-17 0 0)
(-5.551115123e-17 0 0)
(-8.326672685e-17 0 0)
(-5.551115123e-17 -2.775557562e-17 0)
(-5.551115123e-17 -2.775557562e-17 0)
(2.775557562e-17 2.775557562e-17 0)
(-5.551115123e-17 -5.551115123e-17 0)
(-5.551115123e-17 -5.551115123e-17 0)
(-5.551115123e-17 -5.551115123e-17 0)
(-5.551115123e-17 -5.551115123e-17 0)
(8.326672685e-17 0 0)
(-5.551115123e-17 -5.551115123e-17 0)
(-5.551115123e-17 -5.551115123e-17 0)
(-5.551115123e-17 -5.551115123e-17 0)
(-5.551115123e-17 -5.551115123e-17 0)
(-5.551115123e-17 5.551115123e-17 0)
(8.326672685e-17 5.551115123e-17 0)
(-5.551115123e-17 -5.551115123e-17 0)
(-5.551115123e-17 -5.551115123e-17 0)
(-5.551115123e-17 -5.551115123e-17 0)
(-5.551115123e-17 -5.551115123e-17 0)
(-5.551115123e-17 -5.551115123e-17 0)
(8.326672685e-17 0 0)
(-5.551115123e-17 -1.110223025e-16 0)
(-5.551115123e-17 -5.551115123e-17 0)
(-5.551115123e-17 -5.551115123e-17 0)
(-5.551115123e-17 0 0)
(-5.551115123e-17 -5.551115123e-17 0)
(8.326672685e-17 0 0)
(-5.551115123e-17 -5.551115123e-17 0)
(-5.551115123e-17 -5.551115123e-17 0)
(-5.551115123e-17 0 0)
(0 0 0)
(0 0 0)
(0 0 0)
(-8.326672685e-17 -2.775557562e-17 0)
(0 0 0)
(0 0 0)
(0 0 0)
(0 0 0)
(0 0 0)
(0 0 0)
(0 0 0)
(0 0 0)
(0 0 0)
(0 0 0)
(0 0 0)
(0 0 0)
(0 0 0)
(0 -5.551115123e-17 0)
(0 0 0)
(0 0 0)
(0 0 0)
(0 0 0)
(0 0 0)
(0 0 0)
(0 0 0)
(0 1.110223025e-16 0)
(0 0 0)
(0 5.551115123e-17 0)
(0 5.551115123e-17 0)
(0 0 0)
(2.775557562e-17 5.551115123e-17 0)
(0 0 0)
(0 0 0)
(0 0 0)
(0 5.551115123e-17 0)
(0 5.551115123e-17 0)
(0 -5.551115123e-17 0)
(0 0 0)
(0 0 0)
(0 0 0)
(0 0 0)
(0 0 0)
(0 -5.551115123e-17 0)
(0 -1.110223025e-16 0)
(0 5.551115123e-17 0)
(0 0 0)
(0 0 0)
(0 0 0)
(0 -5.551115123e-17 0)
(0 0 0)
(0 0 0)
(0 0 0)
(0 0 0)
(0 -5.551115123e-17 0)
(0 0 0)
(0 0 0)
(5.551115123e-17 1.110223025e-16 0)
(0 0 0)
(0 0 0)
(0 5.551115123e-17 0)
(0 0 0)
(0 0 0)
(0 0 0)
(0 -2.775557562e-17 0)
(0 0 0)
(0 0 0)
(0 0 0)
(0 0 0)
(0 0 0)
(0 0 0)
(0 0 0)
(0 0 0)
(0 0 0)
(0 0 0)
(0 0 0)
(0 0 0)
(0 0 0)
(0 -5.551115123e-17 0)
(0 0 0)
(0 0 0)
(0 0 0)
(0 0 0)
(0 0 0)
(0 0 0)
(0 0 0)
(0 1.110223025e-16 0)
(0 0 0)
(0 5.551115123e-17 0)
(0 5.551115123e-17 0)
(0 0 0)
(-5.551115123e-17 0 0)
(0 0 0)
(0 0 0)
(0 -2.775557562e-17 0)
(0 0 0)
(0 0 0)
(0 0 0)
(0 0 0)
(0 0 0)
(0 0 0)
(0 0 0)
(0 0 0)
(0 0 0)
(0 0 0)
(0 0 0)
(0 0 0)
(0 0 0)
(0 -5.551115123e-17 0)
(0 0 0)
(0 0 0)
(0 0 0)
(0 0 0)
(0 0 0)
(0 0 0)
(0 0 0)
(0 1.110223025e-16 0)
(0 0 0)
(0 5.551115123e-17 0)
(0 5.551115123e-17 0)
(0 0 0)
(5.551115123e-17 2.775557562e-17 0)
(5.551115123e-17 0 0)
(5.551115123e-17 -5.551115123e-17 0)
(0 -2.775557562e-17 0)
(5.551115123e-17 0 0)
(5.551115123e-17 -1.110223025e-16 0)
(5.551115123e-17 -5.551115123e-17 0)
(5.551115123e-17 0 0)
(0 0 0)
(5.551115123e-17 -5.551115123e-17 0)
(5.551115123e-17 0 0)
(5.551115123e-17 0 0)
(5.551115123e-17 0 0)
(5.551115123e-17 -5.551115123e-17 0)
(0 5.551115123e-17 0)
(5.551115123e-17 0 0)
(5.551115123e-17 0 0)
(5.551115123e-17 0 0)
(5.551115123e-17 0 0)
(5.551115123e-17 0 0)
(0 -5.551115123e-17 0)
(5.551115123e-17 0 0)
(5.551115123e-17 0 0)
(5.551115123e-17 0 0)
(5.551115123e-17 0 0)
(5.551115123e-17 0 0)
(5.551115123e-17 5.551115123e-17 0)
(5.551115123e-17 0 0)
(5.551115123e-17 0 0)
(5.551115123e-17 0 0)
(5.551115123e-17 0 0)
(-5.551115123e-17 0 0)
(-5.551115123e-17 0 0)
(5.551115123e-17 -2.775557562e-17 0)
(-5.551115123e-17 0 0)
(-5.551115123e-17 0 0)
(-5.551115123e-17 0 0)
(-5.551115123e-17 0 0)
(0 0 0)
(-5.551115123e-17 0 0)
(-5.551115123e-17 0 0)
(-5.551115123e-17 0 0)
(-5.551115123e-17 0 0)
(-5.551115123e-17 0 0)
(0 0 0)
(-5.551115123e-17 0 0)
(-5.551115123e-17 0 0)
(-5.551115123e-17 -5.551115123e-17 0)
(-5.551115123e-17 0 0)
(-5.551115123e-17 0 0)
(0 0 0)
(-5.551115123e-17 0 0)
(-5.551115123e-17 0 0)
(-5.551115123e-17 0 0)
(-5.551115123e-17 0 0)
(-5.551115123e-17 1.110223025e-16 0)
(0 0 0)
(-5.551115123e-17 5.551115123e-17 0)
(-5.551115123e-17 5.551115123e-17 0)
(-5.551115123e-17 0 0)
(-5.551115123e-17 2.775557562e-17 0)
(0 8.326672685e-17 0)
(0 2.775557562e-17 0)
(-5.551115123e-17 0 0)
(0 1.110223025e-16 0)
(0 0 0)
(0 0 0)
(0 0 0)
(0 -5.551115123e-17 0)
(0 5.551115123e-17 0)
(0 5.551115123e-17 0)
(0 1.665334537e-16 0)
(0 1.110223025e-16 0)
(0 5.551115123e-17 0)
(0 0 0)
(0 5.551115123e-17 0)
(0 5.551115123e-17 0)
(0 1.110223025e-16 0)
(0 0 0)
(0 5.551115123e-17 0)
(0 0 0)
(0 5.551115123e-17 0)
(0 5.551115123e-17 0)
(0 5.551115123e-17 0)
(0 -1.110223025e-16 0)
(0 1.110223025e-16 0)
(0 0 0)
(0 1.110223025e-16 0)
(0 1.110223025e-16 0)
(0 5.551115123e-17 0)
(5.551115123e-17 2.775557562e-17 0)
(0 0 0)
(0 -5.551115123e-17 0)
(0 -2.775557562e-17 0)
(0 0 0)
(0 -1.110223025e-16 0)
(0 -5.551115123e-17 0)
(0 0 0)
(0 0 0)
(0 -5.551115123e-17 0)
(0 0 0)
(0 0 0)
(0 0 0)
(0 -5.551115123e-17 0)
(0 5.551115123e-17 0)
(0 0 0)
(0 0 0)
(0 0 0)
(0 0 0)
(0 0 0)
(0 -5.551115123e-17 0)
(0 0 0)
(0 0 0)
(0 0 0)
(0 0 0)
(0 0 0)
(0 5.551115123e-17 0)
(0 0 0)
(0 0 0)
(0 0 0)
(0 0 0)
(0 0 0)
(0 0 0)
(0 -2.775557562e-17 0)
(0 0 0)
(0 0 0)
(0 0 0)
(0 0 0)
(-1.110223025e-16 0 0)
(0 0 0)
(0 0 0)
(0 0 0)
(0 0 0)
(0 0 0)
(0 0 0)
(0 0 0)
(0 0 0)
(0 -5.551115123e-17 0)
(0 0 0)
(0 0 0)
(0 0 0)
(0 0 0)
(0 0 0)
(0 0 0)
(0 0 0)
(0 1.110223025e-16 0)
(0 0 0)
(0 5.551115123e-17 0)
(0 5.551115123e-17 0)
(0 0 0)
(0 0 0)
(5.551115123e-17 0 0)
(5.551115123e-17 0 0)
(-5.551115123e-17 -2.775557562e-17 0)
(5.551115123e-17 0 0)
(5.551115123e-17 0 0)
(5.551115123e-17 0 0)
(5.551115123e-17 0 0)
(5.551115123e-17 0 0)
(5.551115123e-17 0 0)
(5.551115123e-17 0 0)
(5.551115123e-17 0 0)
(5.551115123e-17 0 0)
(5.551115123e-17 0 0)
(5.551115123e-17 0 0)
(5.551115123e-17 0 0)
(5.551115123e-17 0 0)
(5.551115123e-17 -5.551115123e-17 0)
(5.551115123e-17 0 0)
(5.551115123e-17 0 0)
(5.551115123e-17 0 0)
(5.551115123e-17 0 0)
(5.551115123e-17 0 0)
(5.551115123e-17 0 0)
(5.551115123e-17 0 0)
(5.551115123e-17 1.110223025e-16 0)
(0 0 0)
(5.551115123e-17 5.551115123e-17 0)
(5.551115123e-17 5.551115123e-17 0)
(5.551115123e-17 0 0)
(5.551115123e-17 2.775557562e-17 0)
(1.110223025e-16 0 0)
(1.110223025e-16 -5.551115123e-17 0)
(5.551115123e-17 -2.775557562e-17 0)
(1.110223025e-16 0 0)
(1.110223025e-16 -1.110223025e-16 0)
(1.110223025e-16 -5.551115123e-17 0)
(1.110223025e-16 0 0)
(0 0 0)
(1.110223025e-16 -5.551115123e-17 0)
(1.110223025e-16 0 0)
(1.110223025e-16 0 0)
(1.110223025e-16 0 0)
(1.110223025e-16 -5.551115123e-17 0)
(0 5.551115123e-17 0)
(1.110223025e-16 0 0)
(1.110223025e-16 0 0)
(1.110223025e-16 0 0)
(1.110223025e-16 0 0)
(1.110223025e-16 0 0)
(0 -5.551115123e-17 0)
(1.110223025e-16 0 0)
(1.110223025e-16 0 0)
(1.110223025e-16 0 0)
(1.110223025e-16 0 0)
(1.110223025e-16 0 0)
(0 5.551115123e-17 0)
(1.110223025e-16 0 0)
(1.110223025e-16 0 0)
(1.110223025e-16 0 0)
(0 0 0)
(5.551115123e-17 0 0)
(5.551115123e-17 2.775557562e-17 0)
(1.110223025e-16 -8.326672685e-17 0)
(5.551115123e-17 2.775557562e-17 0)
(5.551115123e-17 0 0)
(5.551115123e-17 0 0)
(5.551115123e-17 0 0)
(-5.551115123e-17 -5.551115123e-17 0)
(5.551115123e-17 5.551115123e-17 0)
(5.551115123e-17 5.551115123e-17 0)
(5.551115123e-17 1.665334537e-16 0)
(5.551115123e-17 1.110223025e-16 0)
(5.551115123e-17 5.551115123e-17 0)
(0 0 0)
(5.551115123e-17 5.551115123e-17 0)
(5.551115123e-17 5.551115123e-17 0)
(5.551115123e-17 1.110223025e-16 0)
(5.551115123e-17 0 0)
(5.551115123e-17 1.110223025e-16 0)
(0 0 0)
(5.551115123e-17 5.551115123e-17 0)
(5.551115123e-17 5.551115123e-17 0)
(5.551115123e-17 5.551115123e-17 0)
(5.551115123e-17 5.551115123e-17 0)
(5.551115123e-17 1.110223025e-16 0)
(0 0 0)
(5.551115123e-17 1.110223025e-16 0)
(5.551115123e-17 1.110223025e-16 0)
(5.551115123e-17 1.665334537e-16 0)
(-5.551115123e-17 -2.775557562e-17 0)
(0 0 0)
(0 0 0)
(-5.551115123e-17 -2.775557562e-17 0)
(0 0 0)
(0 0 0)
(0 0 0)
(0 0 0)
(-5.551115123e-17 5.551115123e-17 0)
(0 0 0)
(0 0 0)
(0 0 0)
(0 0 0)
(0 0 0)
(-5.551115123e-17 0 0)
(0 0 0)
(0 0 0)
(0 -5.551115123e-17 0)
(0 0 0)
(0 0 0)
(-5.551115123e-17 5.551115123e-17 0)
(0 0 0)
(0 0 0)
(0 0 0)
(0 0 0)
(0 1.110223025e-16 0)
(5.551115123e-17 5.551115123e-17 0)
(0 0 0)
(5.551115123e-17 0 0)
(0 0 0)
(-5.551115123e-17 -2.775557562e-17 0)
(0 0 0)
(0 -5.551115123e-17 0)
(0 -2.775557562e-17 0)
(0 2.775557562e-17 0)
(0 -1.110223025e-16 0)
(0 -5.551115123e-17 0)
(0 0 0)
(-5.551115123e-17 0 0)
(0 -5.551115123e-17 0)
(0 0 0)
(0 0 0)
(0 -5.551115123e-17 0)
(0 5.551115123e-17 0)
(0 5.551115123e-17 0)
(0 0 0)
(0 0 0)
(0 0 0)
(0 0 0)
(0 0 0)
(0 -5.551115123e-17 0)
(0 -5.551115123e-17 0)
(0 0 0)
(0 0 0)
(0 0 0)
(0 1.110223025e-16 0)
(0 0 0)
(0 0 0)
(0 0 0)
(5.551115123e-17 0 0)
(0 2.775557562e-17 0)
(0 0 0)
(0 2.775557562e-17 0)
(0 0 0)
(0 8.326672685e-17 0)
(0 0 0)
(0 0 0)
(0 -5.551115123e-17 0)
(0 5.551115123e-17 0)
(0 0 0)
(0 -5.551115123e-17 0)
(0 0 0)
(0 0 0)
(0 0 0)
(0 5.551115123e-17 0)
(0 5.551115123e-17 0)
(0 0 0)
(0 0 0)
(0 -5.551115123e-17 0)
(0 0 0)
(0 5.551115123e-17 0)
(0 0 0)
(0 0 0)
(0 -1.110223025e-16 0)
(0 0 0)
(-5.551115123e-17 0 0)
(5.551115123e-17 5.551115123e-17 0)
(0 0 0)
(0 5.551115123e-17 0)
(0 0 0)
(5.551115123e-17 -2.775557562e-17 0)
(0 0 0)
(0 0 0)
(1.110223025e-16 0 0)
(0 0 0)
(0 0 0)
(0 5.551115123e-17 0)
(0 5.551115123e-17 0)
(0 0 0)
(0 0 0)
(0 5.551115123e-17 0)
(0 0 0)
(0 0 0)
(0 0 0)
(0 0 0)
(0 0 0)
(0 0 0)
(0 -5.551115123e-17 0)
(0 0 0)
(0 0 0)
(0 0 0)
(0 0 0)
(0 0 0)
(0 5.551115123e-17 0)
(5.551115123e-17 1.665334537e-16 0)
(0 1.110223025e-16 0)
(-5.551115123e-17 -5.551115123e-17 0)
(0 5.551115123e-17 0)
(0 5.551115123e-17 0)
(0 -5.551115123e-17 0)
(0 5.551115123e-17 0)
(0 0 0)
(0 -8.326672685e-17 0)
(0 0 0)
(0 0 0)
(0 -5.551115123e-17 0)
(0 0 0)
(0 0 0)
(0 0 0)
(0 0 0)
(0 -5.551115123e-17 0)
(0 0 0)
(0 -5.551115123e-17 0)
(0 0 0)
(0 0 0)
(0 0 0)
(0 5.551115123e-17 0)
(0 0 0)
(0 -5.551115123e-17 0)
(0 -5.551115123e-17 0)
(0 5.551115123e-17 0)
(0 0 0)
(0 5.551115123e-17 0)
(5.551115123e-17 5.551115123e-17 0)
(0 0 0)
(0 0 0)
(-5.551115123e-17 -5.551115123e-17 0)
(0 0 0)
(0 0 0)
(0 0 0)
(0 0 0)
(0 0 0)
(0 0 0)
(0 -2.775557562e-17 0)
(0 0 0)
(0 0 0)
(0 0 0)
(0 0 0)
(0 0 0)
(0 0 0)
(0 0 0)
(0 0 0)
(0 0 0)
(0 0 0)
(0 0 0)
(0 0 0)
(0 0 0)
(0 -5.551115123e-17 0)
(0 0 0)
(0 0 0)
(0 0 0)
(0 0 0)
(0 0 0)
(0 0 0)
(0 0 0)
(0 1.110223025e-16 0)
(0 0 0)
(0 5.551115123e-17 0)
(0 5.551115123e-17 0)
(0 0 0)
(-5.551115123e-17 0 0)
(5.551115123e-17 0 0)
(5.551115123e-17 0 0)
(0 -2.775557562e-17 0)
(5.551115123e-17 0 0)
(5.551115123e-17 0 0)
(5.551115123e-17 0 0)
(5.551115123e-17 0 0)
(0 0 0)
(5.551115123e-17 0 0)
(5.551115123e-17 0 0)
(5.551115123e-17 0 0)
(5.551115123e-17 0 0)
(5.551115123e-17 0 0)
(0 0 0)
(5.551115123e-17 0 0)
(5.551115123e-17 0 0)
(5.551115123e-17 -5.551115123e-17 0)
(5.551115123e-17 0 0)
(5.551115123e-17 0 0)
(0 0 0)
(5.551115123e-17 0 0)
(5.551115123e-17 0 0)
(0 0 0)
(0 0 0)
(0 1.110223025e-16 0)
(0 0 0)
(0 5.551115123e-17 0)
(0 5.551115123e-17 0)
(0 0 0)
(5.551115123e-17 2.775557562e-17 0)
(0 0 0)
(0 -5.551115123e-17 0)
(0 -2.775557562e-17 0)
(0 0 0)
(0 -1.110223025e-16 0)
(0 -5.551115123e-17 0)
(0 0 0)
(0 0 0)
(0 -5.551115123e-17 0)
(0 0 0)
(0 0 0)
(0 0 0)
(0 -5.551115123e-17 0)
(0 5.551115123e-17 0)
(0 0 0)
(0 0 0)
(0 0 0)
(0 0 0)
(0 0 0)
(0 -5.551115123e-17 0)
(0 0 0)
(0 0 0)
(0 5.551115123e-17 0)
(0 0 0)
(0 0 0)
(0 5.551115123e-17 0)
(0 0 0)
(0 0 0)
(0 0 0)
(0 0 0)
(0 0 0)
(0 0 0)
(-5.551115123e-17 -2.775557562e-17 0)
(0 0 0)
(0 0 0)
(0 0 0)
(0 0 0)
(0 0 0)
(0 0 0)
(0 0 0)
(0 0 0)
(0 0 0)
(0 0 0)
(0 0 0)
(0 0 0)
(0 0 0)
(0 -5.551115123e-17 0)
(0 0 0)
(0 0 0)
(0 0 0)
(0 0 0)
(0 0 0)
(0 0 0)
(0 0 0)
(0 1.110223025e-16 0)
(0 0 0)
(0 5.551115123e-17 0)
(0 5.551115123e-17 0)
(0 0 0)
(0 0 0)
(0 0 0)
(0 0 0)
(0 -2.775557562e-17 0)
(0 0 0)
(0 0 0)
(0 0 0)
(0 0 0)
(0 0 0)
(0 0 0)
(0 0 0)
(0 0 0)
(0 0 0)
(0 0 0)
(0 0 0)
(0 0 0)
(0 0 0)
(0 -5.551115123e-17 0)
(0 0 0)
(0 0 0)
(0 0 0)
(0 0 0)
(0 0 0)
(-1.110223025e-16 -5.551115123e-17 0)
(0 0 0)
(0 5.551115123e-17 0)
(0 0 0)
(0 0 0)
(0 0 0)
(0 0 0)
(-1.110223025e-16 0 0)
(-5.551115123e-17 -2.775557562e-17 0)
(-5.551115123e-17 -1.110223025e-16 0)
(-1.110223025e-16 0 0)
(-5.551115123e-17 -2.775557562e-17 0)
(-5.551115123e-17 -5.551115123e-17 0)
(-5.551115123e-17 0 0)
(-5.551115123e-17 -5.551115123e-17 0)
(0 5.551115123e-17 0)
(-5.551115123e-17 -5.551115123e-17 0)
(-5.551115123e-17 -5.551115123e-17 0)
(-5.551115123e-17 -5.551115123e-17 0)
(-5.551115123e-17 -1.110223025e-16 0)
(-5.551115123e-17 -5.551115123e-17 0)
(0 1.665334537e-16 0)
(-5.551115123e-17 -5.551115123e-17 0)
(-5.551115123e-17 1.110223025e-16 0)
(-5.551115123e-17 -5.551115123e-17 0)
(-5.551115123e-17 -1.665334537e-16 0)
(-5.551115123e-17 -5.551115123e-17 0)
(0 1.110223025e-16 0)
(-5.551115123e-17 -1.110223025e-16 0)
(-5.551115123e-17 -5.551115123e-17 0)
(-5.551115123e-17 0 0)
(0 1.110223025e-16 0)
(0 0 0)
)
;
    }
    region0_to_wallFilmRegion_mirrorFace
    {
        type            mappedWall;
        inGroups        List<word> 
2
(
wall
mappedPatch
)
;
        nFaces          703;
        startFace       202786;
        sampleMode      nearestPatchFace;
        sampleRegion    wallFilmRegion;
        samplePatch     region0_to_wallFilmRegion_mirrorFace;
        offsetMode      nonuniform;
        offsets         nonuniform List<vector> 
703
(
(0 1.110223025e-16 0)
(1.665334537e-16 5.551115123e-17 5.551115123e-17)
(0 0 0)
(5.551115123e-17 0 0)
(5.551115123e-17 0 -1.110223025e-16)
(0 5.551115123e-17 0)
(0 5.551115123e-17 -5.551115123e-17)
(5.551115123e-17 1.110223025e-16 5.551115123e-17)
(0 0 0)
(0 0 1.110223025e-16)
(1.110223025e-16 1.665334537e-16 5.551115123e-17)
(1.110223025e-16 0 5.551115123e-17)
(0 0 5.551115123e-17)
(5.551115123e-17 0 5.551115123e-17)
(0 1.110223025e-16 5.551115123e-17)
(5.551115123e-17 0 0)
(0 5.551115123e-17 0)
(0 0 0)
(0 0 5.551115123e-17)
(0 1.110223025e-16 5.551115123e-17)
(5.551115123e-17 1.110223025e-16 0)
(-5.551115123e-17 1.110223025e-16 5.551115123e-17)
(5.551115123e-17 1.110223025e-16 1.110223025e-16)
(0 0 -1.110223025e-16)
(0 0 0)
(0 -1.110223025e-16 -5.551115123e-17)
(-1.110223025e-16 0 -5.551115123e-17)
(-5.551115123e-17 -5.551115123e-17 -1.665334537e-16)
(0 0 0)
(0 0 0)
(-5.551115123e-17 0 0)
(0 0 0)
(-5.551115123e-17 -5.551115123e-17 0)
(0 0 0)
(5.551115123e-17 5.551115123e-17 5.551115123e-17)
(2.220446049e-16 1.110223025e-16 1.110223025e-16)
(0 0 -5.551115123e-17)
(-5.551115123e-17 -5.551115123e-17 -1.110223025e-16)
(-5.551115123e-17 0 0)
(0 0 -5.551115123e-17)
(-5.551115123e-17 -5.551115123e-17 -5.551115123e-17)
(0 0 -5.551115123e-17)
(1.110223025e-16 5.551115123e-17 5.551115123e-17)
(-5.551115123e-17 0 5.551115123e-17)
(5.551115123e-17 5.551115123e-17 0)
(0 -1.110223025e-16 -1.110223025e-16)
(0 0 0)
(0 0 0)
(0 0 0)
(-1.110223025e-16 -5.551115123e-17 5.551115123e-17)
(0 -5.551115123e-17 0)
(-1.665334537e-16 -1.110223025e-16 -5.551115123e-17)
(-5.551115123e-17 5.551115123e-17 0)
(-1.110223025e-16 0 0)
(0 0 0)
(-1.110223025e-16 -5.551115123e-17 -1.110223025e-16)
(-1.110223025e-16 -5.551115123e-17 -5.551115123e-17)
(0 0 0)
(-5.551115123e-17 -1.110223025e-16 0)
(0 0 0)
(0 5.551115123e-17 0)
(5.551115123e-17 1.110223025e-16 5.551115123e-17)
(0 0 0)
(-1.110223025e-16 1.110223025e-16 -1.110223025e-16)
(0 -1.110223025e-16 -5.551115123e-17)
(0 -1.110223025e-16 -5.551115123e-17)
(-1.665334537e-16 0 0)
(0 0 0)
(-1.110223025e-16 -1.110223025e-16 -1.110223025e-16)
(1.110223025e-16 1.665334537e-16 1.110223025e-16)
(-5.551115123e-17 5.551115123e-17 -5.551115123e-17)
(-5.551115123e-17 -5.551115123e-17 -5.551115123e-17)
(0 0 5.551115123e-17)
(-1.110223025e-16 0 -5.551115123e-17)
(-5.551115123e-17 0 -5.551115123e-17)
(-5.551115123e-17 0 0)
(0 -1.665334537e-16 0)
(0 0 0)
(0 1.110223025e-16 0)
(5.551115123e-17 1.110223025e-16 5.551115123e-17)
(-5.551115123e-17 5.551115123e-17 0)
(-5.551115123e-17 1.110223025e-16 0)
(0 0 0)
(-1.665334537e-16 0 0)
(0 1.110223025e-16 -5.551115123e-17)
(-5.551115123e-17 -5.551115123e-17 5.551115123e-17)
(0 0 0)
(5.551115123e-17 5.551115123e-17 1.110223025e-16)
(0 0 5.551115123e-17)
(0 0 1.110223025e-16)
(-5.551115123e-17 -5.551115123e-17 -5.551115123e-17)
(0 -2.220446049e-16 -5.551115123e-17)
(1.110223025e-16 0 0)
(0 0 0)
(0 5.551115123e-17 1.110223025e-16)
(-1.110223025e-16 5.551115123e-17 0)
(1.110223025e-16 5.551115123e-17 0)
(5.551115123e-17 0 -5.551115123e-17)
(1.110223025e-16 0 5.551115123e-17)
(5.551115123e-17 0 0)
(0 5.551115123e-17 0)
(0 0 0)
(0 0 0)
(-5.551115123e-17 -1.110223025e-16 0)
(-5.551115123e-17 0 0)
(-5.551115123e-17 0 5.551115123e-17)
(5.551115123e-17 0 0)
(-5.551115123e-17 -5.551115123e-17 -5.551115123e-17)
(5.551115123e-17 5.551115123e-17 5.551115123e-17)
(0 0 0)
(5.551115123e-17 5.551115123e-17 5.551115123e-17)
(-5.551115123e-17 0 0)
(0 0 5.551115123e-17)
(0 0 0)
(0 1.110223025e-16 0)
(1.665334537e-16 0 5.551115123e-17)
(-1.665334537e-16 -1.110223025e-16 -5.551115123e-17)
(0 -1.110223025e-16 0)
(1.110223025e-16 5.551115123e-17 5.551115123e-17)
(1.665334537e-16 0 0)
(0 0 0)
(-1.665334537e-16 0 5.551115123e-17)
(-5.551115123e-17 0 -1.110223025e-16)
(0 1.665334537e-16 5.551115123e-17)
(0 0 -5.551115123e-17)
(0 5.551115123e-17 1.110223025e-16)
(1.110223025e-16 5.551115123e-17 5.551115123e-17)
(0 0 -5.551115123e-17)
(5.551115123e-17 5.551115123e-17 5.551115123e-17)
(-5.551115123e-17 0 -5.551115123e-17)
(5.551115123e-17 2.220446049e-16 0)
(5.551115123e-17 1.110223025e-16 0)
(-5.551115123e-17 1.110223025e-16 -5.551115123e-17)
(5.551115123e-17 1.110223025e-16 1.110223025e-16)
(-5.551115123e-17 -5.551115123e-17 5.551115123e-17)
(0 0 0)
(0 5.551115123e-17 5.551115123e-17)
(-5.551115123e-17 -5.551115123e-17 -1.110223025e-16)
(0 0 5.551115123e-17)
(0 0 0)
(-1.110223025e-16 -5.551115123e-17 0)
(-5.551115123e-17 0 -5.551115123e-17)
(5.551115123e-17 1.665334537e-16 -5.551115123e-17)
(0 -5.551115123e-17 0)
(0 0 0)
(-5.551115123e-17 0 -5.551115123e-17)
(5.551115123e-17 -5.551115123e-17 -1.110223025e-16)
(1.110223025e-16 0 0)
(5.551115123e-17 0 0)
(0 -1.665334537e-16 -1.110223025e-16)
(2.220446049e-16 0 0)
(5.551115123e-17 2.220446049e-16 5.551115123e-17)
(0 -5.551115123e-17 0)
(0 0 -1.110223025e-16)
(5.551115123e-17 0 0)
(0 0 0)
(-5.551115123e-17 0 0)
(0 5.551115123e-17 0)
(-1.110223025e-16 -5.551115123e-17 -5.551115123e-17)
(-5.551115123e-17 -5.551115123e-17 -5.551115123e-17)
(5.551115123e-17 5.551115123e-17 5.551115123e-17)
(0 0 5.551115123e-17)
(-5.551115123e-17 -1.665334537e-16 -5.551115123e-17)
(5.551115123e-17 -5.551115123e-17 5.551115123e-17)
(0 0 0)
(0 0 0)
(5.551115123e-17 1.110223025e-16 5.551115123e-17)
(0 0 0)
(0 0 0)
(0 1.665334537e-16 0)
(0 0 0)
(-5.551115123e-17 1.110223025e-16 -5.551115123e-17)
(5.551115123e-17 0 5.551115123e-17)
(5.551115123e-17 0 0)
(1.110223025e-16 0 0)
(5.551115123e-17 -1.665334537e-16 0)
(-2.220446049e-16 1.665334537e-16 -5.551115123e-17)
(-1.110223025e-16 -1.110223025e-16 -1.110223025e-16)
(0 0 0)
(0 1.110223025e-16 0)
(5.551115123e-17 0 5.551115123e-17)
(-5.551115123e-17 0 0)
(0 0 0)
(0 1.110223025e-16 5.551115123e-17)
(1.110223025e-16 -2.220446049e-16 5.551115123e-17)
(-1.110223025e-16 -1.110223025e-16 -5.551115123e-17)
(-5.551115123e-17 0 -5.551115123e-17)
(5.551115123e-17 0 0)
(-5.551115123e-17 0 5.551115123e-17)
(0 0 0)
(-1.110223025e-16 0 -5.551115123e-17)
(-1.110223025e-16 0 0)
(-5.551115123e-17 0 -1.110223025e-16)
(0 0 -5.551115123e-17)
(-5.551115123e-17 0 -5.551115123e-17)
(0 1.110223025e-16 5.551115123e-17)
(0 0 5.551115123e-17)
(-1.110223025e-16 -1.110223025e-16 5.551115123e-17)
(5.551115123e-17 0 0)
(-5.551115123e-17 0 -5.551115123e-17)
(-5.551115123e-17 5.551115123e-17 5.551115123e-17)
(-1.110223025e-16 0 0)
(5.551115123e-17 0 0)
(5.551115123e-17 1.110223025e-16 0)
(0 0 0)
(0 1.665334537e-16 0)
(-1.110223025e-16 0 -5.551115123e-17)
(5.551115123e-17 5.551115123e-17 0)
(-1.110223025e-16 -1.110223025e-16 0)
(0 -5.551115123e-17 0)
(0 5.551115123e-17 -1.110223025e-16)
(-5.551115123e-17 -5.551115123e-17 -5.551115123e-17)
(0 0 0)
(0 1.665334537e-16 0)
(-1.110223025e-16 1.110223025e-16 0)
(0 0 0)
(1.110223025e-16 1.110223025e-16 0)
(5.551115123e-17 5.551115123e-17 0)
(5.551115123e-17 5.551115123e-17 5.551115123e-17)
(0 0 0)
(5.551115123e-17 1.110223025e-16 1.110223025e-16)
(1.110223025e-16 5.551115123e-17 -5.551115123e-17)
(0 0 0)
(0 -5.551115123e-17 5.551115123e-17)
(0 0 -5.551115123e-17)
(5.551115123e-17 5.551115123e-17 5.551115123e-17)
(0 0 0)
(-5.551115123e-17 -1.110223025e-16 0)
(-1.110223025e-16 0 5.551115123e-17)
(0 -5.551115123e-17 -5.551115123e-17)
(-1.110223025e-16 -1.110223025e-16 0)
(1.110223025e-16 0 0)
(5.551115123e-17 -1.110223025e-16 0)
(0 5.551115123e-17 5.551115123e-17)
(0 0 0)
(0 -1.110223025e-16 0)
(-5.551115123e-17 -5.551115123e-17 0)
(-5.551115123e-17 0 0)
(0 0 0)
(0 -1.110223025e-16 0)
(-5.551115123e-17 -5.551115123e-17 0)
(1.110223025e-16 5.551115123e-17 0)
(1.110223025e-16 5.551115123e-17 -5.551115123e-17)
(0 0 -5.551115123e-17)
(5.551115123e-17 0 0)
(-5.551115123e-17 0 -5.551115123e-17)
(-1.110223025e-16 -5.551115123e-17 -1.110223025e-16)
(0 0 0)
(1.110223025e-16 0 0)
(0 0 5.551115123e-17)
(5.551115123e-17 5.551115123e-17 5.551115123e-17)
(0 0 0)
(1.665334537e-16 5.551115123e-17 5.551115123e-17)
(-1.665334537e-16 -5.551115123e-17 -5.551115123e-17)
(-1.110223025e-16 -1.110223025e-16 5.551115123e-17)
(0 5.551115123e-17 5.551115123e-17)
(-1.665334537e-16 -1.110223025e-16 5.551115123e-17)
(0 0 0)
(-1.110223025e-16 0 0)
(0 -5.551115123e-17 -5.551115123e-17)
(0 0 -1.110223025e-16)
(1.110223025e-16 1.110223025e-16 0)
(0 -1.110223025e-16 0)
(-1.110223025e-16 -1.110223025e-16 0)
(0 0 0)
(-5.551115123e-17 -5.551115123e-17 -5.551115123e-17)
(0 0 0)
(5.551115123e-17 5.551115123e-17 5.551115123e-17)
(5.551115123e-17 0 5.551115123e-17)
(5.551115123e-17 -5.551115123e-17 0)
(1.110223025e-16 1.110223025e-16 1.110223025e-16)
(-5.551115123e-17 -5.551115123e-17 -5.551115123e-17)
(0 0 5.551115123e-17)
(0 0 0)
(0 0 -5.551115123e-17)
(-5.551115123e-17 -1.110223025e-16 -5.551115123e-17)
(5.551115123e-17 5.551115123e-17 5.551115123e-17)
(-5.551115123e-17 0 -5.551115123e-17)
(0 0 0)
(-1.110223025e-16 0 -5.551115123e-17)
(-5.551115123e-17 -5.551115123e-17 -5.551115123e-17)
(0 -1.110223025e-16 0)
(0 0 5.551115123e-17)
(-1.110223025e-16 0 0)
(0 0 0)
(-1.110223025e-16 -1.110223025e-16 -5.551115123e-17)
(5.551115123e-17 -1.110223025e-16 -5.551115123e-17)
(-1.110223025e-16 -5.551115123e-17 0)
(1.110223025e-16 1.110223025e-16 0)
(0 -5.551115123e-17 -5.551115123e-17)
(1.110223025e-16 1.110223025e-16 -5.551115123e-17)
(5.551115123e-17 0 0)
(0 0 -5.551115123e-17)
(5.551115123e-17 1.110223025e-16 1.110223025e-16)
(0 -5.551115123e-17 0)
(0 5.551115123e-17 5.551115123e-17)
(-1.110223025e-16 -1.110223025e-16 0)
(0 0 0)
(0 0 0)
(-5.551115123e-17 -5.551115123e-17 0)
(0 -1.110223025e-16 0)
(-1.110223025e-16 -5.551115123e-17 0)
(0 -5.551115123e-17 1.110223025e-16)
(-5.551115123e-17 -5.551115123e-17 0)
(5.551115123e-17 0 5.551115123e-17)
(1.110223025e-16 5.551115123e-17 0)
(0 5.551115123e-17 5.551115123e-17)
(-5.551115123e-17 5.551115123e-17 0)
(-5.551115123e-17 -5.551115123e-17 -1.110223025e-16)
(5.551115123e-17 0 5.551115123e-17)
(0 0 -5.551115123e-17)
(-5.551115123e-17 0 -5.551115123e-17)
(0 0 1.110223025e-16)
(0 0 0)
(0 0 5.551115123e-17)
(0 1.110223025e-16 0)
(-5.551115123e-17 0 0)
(1.665334537e-16 1.110223025e-16 5.551115123e-17)
(5.551115123e-17 1.110223025e-16 0)
(0 -1.110223025e-16 5.551115123e-17)
(0 0 5.551115123e-17)
(0 -2.220446049e-16 -5.551115123e-17)
(0 1.110223025e-16 0)
(-1.110223025e-16 0 5.551115123e-17)
(1.110223025e-16 0 0)
(-1.110223025e-16 0 0)
(-1.110223025e-16 -1.110223025e-16 0)
(-1.110223025e-16 0 -1.110223025e-16)
(1.110223025e-16 0 0)
(0 0 0)
(0 1.110223025e-16 0)
(-5.551115123e-17 5.551115123e-17 5.551115123e-17)
(-5.551115123e-17 -1.110223025e-16 5.551115123e-17)
(0 0 0)
(0 0 1.110223025e-16)
(-5.551115123e-17 1.110223025e-16 0)
(5.551115123e-17 -1.110223025e-16 0)
(0 0 5.551115123e-17)
(1.110223025e-16 0 0)
(5.551115123e-17 1.110223025e-16 5.551115123e-17)
(5.551115123e-17 5.551115123e-17 5.551115123e-17)
(-1.110223025e-16 -1.110223025e-16 5.551115123e-17)
(0 -1.110223025e-16 5.551115123e-17)
(0 0 5.551115123e-17)
(-5.551115123e-17 0 -5.551115123e-17)
(0 0 0)
(5.551115123e-17 5.551115123e-17 0)
(0 0 0)
(-1.110223025e-16 -5.551115123e-17 0)
(1.110223025e-16 0 0)
(0 1.110223025e-16 5.551115123e-17)
(0 0 5.551115123e-17)
(0 0 -1.110223025e-16)
(5.551115123e-17 1.110223025e-16 5.551115123e-17)
(0 0 0)
(0 0 0)
(5.551115123e-17 5.551115123e-17 5.551115123e-17)
(-1.110223025e-16 -1.110223025e-16 -1.110223025e-16)
(-1.110223025e-16 0 0)
(0 0 0)
(5.551115123e-17 5.551115123e-17 5.551115123e-17)
(0 0 0)
(-1.110223025e-16 5.551115123e-17 5.551115123e-17)
(5.551115123e-17 5.551115123e-17 5.551115123e-17)
(1.665334537e-16 0 0)
(5.551115123e-17 1.110223025e-16 5.551115123e-17)
(5.551115123e-17 5.551115123e-17 0)
(0 0 0)
(5.551115123e-17 1.110223025e-16 0)
(0 -5.551115123e-17 -5.551115123e-17)
(0 -5.551115123e-17 0)
(5.551115123e-17 5.551115123e-17 5.551115123e-17)
(1.110223025e-16 0 0)
(0 0 0)
(5.551115123e-17 5.551115123e-17 1.110223025e-16)
(1.110223025e-16 5.551115123e-17 -5.551115123e-17)
(-5.551115123e-17 -5.551115123e-17 -5.551115123e-17)
(-1.665334537e-16 -5.551115123e-17 -5.551115123e-17)
(0 0 5.551115123e-17)
(0 1.665334537e-16 5.551115123e-17)
(-1.110223025e-16 5.551115123e-17 5.551115123e-17)
(0 0 0)
(0 0 0)
(-5.551115123e-17 -1.110223025e-16 -5.551115123e-17)
(1.665334537e-16 0 0)
(0 0 0)
(1.110223025e-16 5.551115123e-17 0)
(0 0 0)
(0 0 0)
(0 0 0)
(-5.551115123e-17 0 0)
(5.551115123e-17 5.551115123e-17 5.551115123e-17)
(-5.551115123e-17 0 0)
(-5.551115123e-17 -1.110223025e-16 -5.551115123e-17)
(0 5.551115123e-17 -1.110223025e-16)
(0 0 0)
(1.110223025e-16 0 0)
(1.665334537e-16 1.665334537e-16 5.551115123e-17)
(0 -5.551115123e-17 -5.551115123e-17)
(5.551115123e-17 -5.551115123e-17 0)
(5.551115123e-17 5.551115123e-17 1.110223025e-16)
(0 0 0)
(0 1.110223025e-16 -5.551115123e-17)
(0 0 0)
(0 0 -5.551115123e-17)
(-1.110223025e-16 5.551115123e-17 5.551115123e-17)
(0 -5.551115123e-17 -5.551115123e-17)
(0 5.551115123e-17 -1.110223025e-16)
(0 1.110223025e-16 -5.551115123e-17)
(-1.110223025e-16 0 5.551115123e-17)
(5.551115123e-17 1.110223025e-16 0)
(5.551115123e-17 0 5.551115123e-17)
(0 1.110223025e-16 0)
(0 -1.110223025e-16 5.551115123e-17)
(5.551115123e-17 1.110223025e-16 5.551115123e-17)
(-1.110223025e-16 1.110223025e-16 -5.551115123e-17)
(1.110223025e-16 0 5.551115123e-17)
(1.665334537e-16 0 0)
(0 -1.110223025e-16 0)
(5.551115123e-17 1.110223025e-16 0)
(1.110223025e-16 0 0)
(0 5.551115123e-17 5.551115123e-17)
(0 0 0)
(1.110223025e-16 5.551115123e-17 0)
(0 0 0)
(0 0 1.110223025e-16)
(0 0 0)
(0 0 0)
(0 0 -1.110223025e-16)
(0 0 0)
(0 -5.551115123e-17 0)
(-1.110223025e-16 5.551115123e-17 0)
(5.551115123e-17 0 1.110223025e-16)
(5.551115123e-17 1.110223025e-16 5.551115123e-17)
(5.551115123e-17 1.665334537e-16 1.110223025e-16)
(0 0 0)
(5.551115123e-17 0 0)
(5.551115123e-17 -1.665334537e-16 -5.551115123e-17)
(0 0 0)
(5.551115123e-17 5.551115123e-17 5.551115123e-17)
(1.110223025e-16 -5.551115123e-17 0)
(-1.110223025e-16 0 0)
(0 -1.110223025e-16 5.551115123e-17)
(0 -5.551115123e-17 -5.551115123e-17)
(0 -1.110223025e-16 -5.551115123e-17)
(-5.551115123e-17 0 0)
(0 1.110223025e-16 0)
(5.551115123e-17 -5.551115123e-17 0)
(0 1.110223025e-16 0)
(0 -1.665334537e-16 0)
(5.551115123e-17 1.110223025e-16 5.551115123e-17)
(-5.551115123e-17 -1.110223025e-16 -5.551115123e-17)
(0 0 0)
(0 0 5.551115123e-17)
(-5.551115123e-17 0 0)
(0 -1.110223025e-16 0)
(-1.110223025e-16 0 0)
(5.551115123e-17 5.551115123e-17 5.551115123e-17)
(0 1.110223025e-16 5.551115123e-17)
(0 -5.551115123e-17 0)
(1.110223025e-16 1.110223025e-16 0)
(0 5.551115123e-17 5.551115123e-17)
(-5.551115123e-17 0 -5.551115123e-17)
(0 0 5.551115123e-17)
(5.551115123e-17 -5.551115123e-17 -5.551115123e-17)
(1.110223025e-16 0 -1.110223025e-16)